124

C      -1.517727000000000     -3.011341000000000     -1.632991000000000
C       0.010246000000000     -3.137962000000000     -2.030893000000000
C       0.235084000000000     -2.072694000000000     -3.156727000000000
C      -1.866485000000000     -1.636492000000000     -2.132781000000000
C      -0.951679000000000     -1.135861000000000     -2.951600000000000
C      -3.120160000000000     -0.879438000000000     -1.792548000000000
C      -3.635621000000000     -1.139365000000000     -0.326784000000000
C      -1.879363000000000     -3.134179000000000     -0.123028000000000
C      -2.592144000000000     -1.898183000000000      0.417163000000000
C      -0.730705000000000     -3.162820000000000      0.854446000000000
C       0.922956000000000     -2.888645000000000     -0.881226000000000
C       0.533813000000000     -3.136839000000000      0.479048000000000
C       2.137058000000000     -2.332149000000000     -0.899162000000000
C       1.638975000000000     -1.313755000000000     -3.154845000000000
C       2.763475000000000     -1.704418000000000     -2.085265000000000
C       1.398271000000000      0.125068000000000     -2.829612000000000
C      -1.012720000000000      0.225669000000000     -3.594089000000000
C       0.257447000000000      0.840906000000000     -3.092631000000000
C      -2.729678000000000      0.571813000000000     -1.769878000000000
C      -2.113336000000000      1.191580000000000     -2.970065000000000
C      -3.877476000000000      0.290649000000000      0.282258000000000
C      -3.088294000000000      1.185864000000000     -0.658395000000000
C      -3.519435000000000      0.531823000000000      1.813932000000000
C      -2.234790000000000     -1.677694000000000      1.675555000000000
C      -1.263909000000000     -2.744852000000000      2.194327000000000
C      -2.797057000000000     -0.645264000000000      2.578084000000000
C      -0.186199000000000     -2.302021000000000      3.233270000000000
C       1.715919000000000     -3.092910000000000      1.393562000000000
C       2.867702000000000     -2.477051000000000      0.420015000000000
C       1.359495000000000     -2.352363000000000      2.727821000000000
C       3.571012000000000     -1.165765000000000      0.872836000000000
C       3.460349000000000     -0.315437000000000     -1.696830000000000
C       2.369577000000000      0.658166000000000     -2.003149000000000
C       4.020039000000000     -0.104813000000000     -0.250555000000000
C       2.190669000000000      1.903571000000000     -1.462632000000000
C       0.054718000000000      2.078151000000000     -2.511262000000000
C      -1.368322000000000      2.538731000000000     -2.618062000000000
C       1.038178000000000      2.618700000000000     -1.724272000000000
C      -2.855471000000000      2.632814000000000     -0.359578000000000
C      -1.753665000000000      3.296079000000000     -1.268249000000000
C      -2.493977000000000      1.640377000000000      1.920754000000000
C      -2.205298000000000      2.576932000000000      1.006668000000000
C      -1.563904000000000     -0.014700000000000      3.189841000000000
C      -0.397777000000000     -0.796890000000000      3.761820000000000
C      -1.486327000000000      1.292942000000000      2.877580000000000
C       1.694577000000000     -0.913388000000000      2.569463000000000
C       2.640153000000000     -0.388482000000000      1.729530000000000
C       0.797578000000000     -0.077804000000000      3.193854000000000
C       3.669527000000000      1.352160000000000      0.447757000000000
C       3.033904000000000      2.515034000000000     -0.401958000000000
C       2.700921000000000      0.969088000000000      1.499726000000000
C       0.826567000000000      3.766780000000000     -0.781496000000000
C      -0.564951000000000      3.457629000000000     -0.305943000000000
C      -0.904425000000000      3.192161000000000      0.955789000000000
C       1.992812000000000      3.588626000000000      0.290241000000000
C      -0.303538000000000      2.186226000000000      3.182246000000000
C       0.852933000000000      1.271411000000000      2.951351000000000
C       1.791092000000000      1.802981000000000      2.089322000000000
C      -0.027119000000000      3.351853000000000      2.151250000000000
C       1.520093000000000      3.233716000000000      1.763111000000000
O      -2.252343000000000     -3.979601000000000     -2.338000000000000
H      -1.599106000000000     -4.653033000000000     -2.616570000000000
O      -4.138751000000000     -1.083834000000000     -2.739535000000000
H      -4.645421000000000     -1.857917000000000     -2.444998000000000
O      -1.139223000000000      0.127644000000000     -4.980243000000000
H      -1.804186000000000      0.777925000000000     -5.259617000000000
O       0.245848000000000     -4.431414000000000     -2.520525000000000
H       0.382581000000000     -4.331905000000000     -3.483158000000000
O      -4.813455000000000     -1.896102000000000     -0.355976000000000
H      -5.545364000000000     -1.261649000000000     -0.262203000000000
O       0.098056000000000     -2.757260000000000     -4.374307000000000
H       0.522971000000000     -2.205114000000000     -5.053966000000000
O       2.195451000000000     -1.447854000000000     -4.433046000000000
H       2.911186000000000     -2.107496000000000     -4.351769000000000
O      -5.247725000000000      0.545411000000000      0.094874000000000
H      -5.424444000000000      1.446714000000000      0.399832000000000
O      -2.674175000000000     -4.275548000000000      0.115290000000000
H      -3.064765000000000     -4.518663000000000     -0.745266000000000
O      -3.112920000000000      1.455199000000000     -3.928785000000000
H      -3.759173000000000      0.733440000000000     -3.876389000000000
O      -4.076053000000000      3.313381000000000     -0.404374000000000
H      -3.882072000000000      4.219709000000000     -0.690836000000000
O      -4.688818000000000      0.891472000000000      2.489779000000000
H      -4.930041000000000      0.159367000000000      3.077589000000000
O      -3.691714000000000     -1.215548000000000      3.508388000000000
H      -3.432156000000000     -2.132291000000000      3.669101000000000
O       3.698305000000000     -2.548673000000000     -2.683097000000000
H       4.467294000000000     -1.977083000000000     -2.893742000000000
O      -2.230427000000000      4.576469000000000     -1.593716000000000
H      -1.595640000000000      4.967968000000000     -2.213888000000000
O      -1.501778000000000      3.432878000000000     -3.687864000000000
H      -2.395895000000000      3.329828000000000     -4.047747000000000
O       4.707892000000000     -1.496953000000000      1.626180000000000
H       4.995147000000000     -2.374946000000000      1.313460000000000
O       3.885207000000000     -3.433437000000000      0.272986000000000
H       3.482547000000000     -4.303314000000000      0.447833000000000
O       2.140772000000000     -2.949724000000000      3.735093000000000
H       1.541409000000000     -3.210896000000000      4.456083000000000
O       2.078202000000000     -4.412481000000000      1.701110000000000
H       2.474041000000000     -4.372440000000000      2.595379000000000
O      -2.055035000000000     -3.764353000000000      2.804701000000000
H      -2.482740000000000     -4.251743000000000      2.078707000000000
O      -0.268614000000000     -3.144282000000000      4.355605000000000
H      -0.934145000000000     -3.828683000000000      4.152798000000000
O       4.507087000000000     -0.168277000000000     -2.631019000000000
H       5.296889000000000      0.120651000000000     -2.146276000000000
O       4.111265000000000      3.236535000000000     -0.944167000000000
H       3.933105000000000      4.182046000000000     -0.788428000000000
O       2.664875000000000      4.815262000000000      0.352673000000000
H       2.915296000000000      4.926053000000000      1.298460000000000
O       5.409028000000000     -0.173370000000000     -0.370121000000000
H       5.758022000000000     -0.237739000000000      0.536804000000000
O       2.229486000000000      4.076357000000000      2.642926000000000
H       1.560625000000000      4.687987000000000      3.018303000000000
O       4.848102000000000      1.820402000000000      1.031450000000000
H       5.254107000000000      2.417246000000000      0.376655000000000
O      -0.239863000000000      4.604322000000000      2.750230000000000
H      -0.580859000000000      4.440632000000000      3.645375000000000
O       0.873823000000000      5.021051000000000     -1.405871000000000
H       1.520515000000000      5.563569000000000     -0.928199000000000
O      -0.394750000000000      2.751746000000000      4.469001000000000
H      -0.463644000000000      2.030369000000000      5.106980000000000
O      -0.440872000000000     -0.753598000000000      5.165643000000000
H      -0.432671000000000     -1.668708000000000      5.490770000000000
