124

C       3.555997000000000     -0.736284000000000      0.839834000000000
C       3.591844000000000      0.852678000000000      0.763288000000000
C       3.520131000000000      1.185100000000000     -0.764386000000000
C       2.949876000000000     -1.101131000000000     -0.481789000000000
C       2.973794000000000     -0.106172000000000     -1.349544000000000
C       2.733728000000000     -2.519632000000000     -0.842435000000000
C       1.943676000000000     -3.283480000000000      0.310595000000000
C       2.837434000000000     -1.388548000000000      2.059764000000000
C       2.006084000000000     -2.730704000000000      1.786902000000000
C       1.814141000000000     -0.489880000000000      2.695020000000000
C       2.455171000000000      1.488564000000000      1.482828000000000
C       1.803194000000000      0.839253000000000      2.576539000000000
C       1.764940000000000      2.581906000000000      1.130946000000000
C       2.686829000000000      2.466877000000000     -1.216228000000000
C       1.954719000000000      3.362149000000000     -0.116036000000000
C       1.543009000000000      2.008330000000000     -2.066308000000000
C       2.586785000000000     -0.186367000000000     -2.793947000000000
C       1.521500000000000      0.868470000000000     -2.841014000000000
C       1.823215000000000     -2.661916000000000     -2.126459000000000
C       1.853883000000000     -1.530165000000000     -3.232150000000000
C       0.536992000000000     -3.151906000000000     -0.173898000000000
C       0.472349000000000     -2.788056000000000     -1.506744000000000
C      -0.597695000000000     -3.164386000000000      0.589824000000000
C       0.622054000000000     -2.383108000000000      2.382020000000000
C       0.638168000000000     -1.223790000000000      3.049046000000000
C      -0.606060000000000     -3.191599000000000      2.089390000000000
C      -0.500923000000000     -0.614437000000000      3.780362000000000
C       0.809826000000000      1.749275000000000      3.239690000000000
C       0.770508000000000      2.999420000000000      2.188227000000000
C      -0.524662000000000      0.987953000000000      3.566503000000000
C      -0.620827000000000      3.346921000000000      1.582044000000000
C       0.561614000000000      3.786996000000000     -0.795003000000000
C       0.373909000000000      2.711382000000000     -1.821194000000000
C      -0.716029000000000      3.948764000000000      0.106376000000000
C      -0.811027000000000      2.276345000000000     -2.361088000000000
C       0.330291000000000      0.383624000000000     -3.325988000000000
C       0.397195000000000     -1.034692000000000     -3.800129000000000
C      -0.828630000000000      1.087633000000000     -3.083804000000000
C      -0.729362000000000     -2.461831000000000     -2.056420000000000
C      -0.929580000000000     -1.771193000000000     -3.359699000000000
C      -1.809667000000000     -2.781145000000000      0.043686000000000
C      -1.881500000000000     -2.433347000000000     -1.275713000000000
C      -2.008246000000000     -2.538726000000000      2.471099000000000
C      -1.898388000000000     -1.119299000000000      3.153354000000000
C      -2.869499000000000     -2.562148000000000      1.057107000000000
C      -1.399722000000000      1.080031000000000      2.381463000000000
C      -1.427640000000000      2.113671000000000      1.496542000000000
C      -2.142197000000000     -0.055744000000000      2.144720000000000
C      -2.092236000000000      3.249357000000000     -0.485964000000000
C      -2.183119000000000      2.720655000000000     -1.954807000000000
C      -2.234644000000000      2.060970000000000      0.385800000000000
C      -2.094298000000000      0.436467000000000     -2.901509000000000
C      -2.120067000000000     -0.890364000000000     -2.901839000000000
C      -3.005867000000000     -1.735052000000000     -1.999890000000000
C      -3.096787000000000      1.365718000000000     -2.269170000000000
C      -3.698163000000000     -1.302088000000000      0.593655000000000
C      -2.928284000000000     -0.117221000000000      1.032835000000000
C      -2.974036000000000      0.937633000000000      0.147743000000000
C      -3.934904000000000     -0.964749000000000     -1.011506000000000
C      -3.790014000000000      0.650371000000000     -1.057713000000000
O       4.898319000000000     -1.196835000000000      0.846503000000000
H       5.439146000000000     -0.397066000000000      1.026785000000000
O       3.964344000000000     -3.142888000000000     -1.104183000000000
H       4.634040000000000     -2.763375000000000     -0.517145000000000
O       3.708512000000000      0.083339000000000     -3.588351000000000
H       3.773958000000000     -0.625009000000000     -4.249607000000000
O       4.810607000000000      1.287859000000000      1.309306000000000
H       5.293310000000000      1.743549000000000      0.596988000000000
O       2.567226000000000     -2.031480000000000     -4.329753000000000
H       2.671100000000000     -2.994175000000000     -4.163036000000000
O       2.166058000000000     -3.870658000000000     -2.778004000000000
H       2.664203000000000     -4.413313000000000     -2.148531000000000
O       4.853461000000000      1.344943000000000     -1.182588000000000
H       4.830486000000000      1.634494000000000     -2.108547000000000
O       2.346111000000000     -4.627854000000000      0.258810000000000
H       2.734547000000000     -4.849089000000000      1.122322000000000
O       2.549763000000000     -3.766982000000000      2.575931000000000
H       3.141160000000000     -3.325373000000000      3.220828000000000
O       3.799693000000000     -1.679434000000000      3.046508000000000
H       4.664265000000000     -1.706887000000000      2.591951000000000
O       3.542073000000000      3.292082000000000     -1.954068000000000
H       3.787296000000000      4.031513000000000     -1.365650000000000
O       2.717613000000000      4.505243000000000      0.125082000000000
H       2.289991000000000      5.219007000000000     -0.396020000000000
O       0.824227000000000      5.009921000000000     -1.441225000000000
H       0.146616000000000      5.643055000000000     -1.139269000000000
O      -0.951555000000000      5.319232000000000      0.198391000000000
H      -1.891826000000000      5.417732000000000      0.441182000000000
O      -3.124454000000000      4.171026000000000     -0.271337000000000
H      -3.368445000000000      4.506374000000000     -1.156086000000000
O      -2.688229000000000      3.764202000000000     -2.738747000000000
H      -3.300131000000000      3.351653000000000     -3.382225000000000
O      -4.069074000000000      1.728985000000000     -3.205216000000000
H      -4.911296000000000      1.768661000000000     -2.708832000000000
O      -5.078536000000000      1.208637000000000     -0.971019000000000
H      -5.655602000000000      0.552070000000000     -0.551203000000000
O      -5.265231000000000     -1.268015000000000     -1.288156000000000
H      -5.285701000000000     -1.887460000000000     -2.035048000000000
O      -3.796194000000000     -2.653802000000000     -2.732137000000000
H      -3.238854000000000     -2.987243000000000     -3.453859000000000
O      -0.435573000000000     -0.934763000000000      5.126006000000000
H      -1.326276000000000     -0.753208000000000      5.479515000000000
O      -2.840711000000000     -1.025635000000000      4.189297000000000
H      -3.201028000000000     -1.916537000000000      4.333433000000000
O      -1.134363000000000      1.601338000000000      4.666866000000000
H      -0.442654000000000      1.686272000000000      5.344018000000000
O      -2.663346000000000     -3.351413000000000      3.387550000000000
H      -2.346006000000000     -4.259315000000000      3.266330000000000
O       1.317537000000000      2.209981000000000      4.461878000000000
H       1.751449000000000      3.064461000000000      4.281342000000000
O      -1.353750000000000     -2.663605000000000     -4.358927000000000
H      -0.977724000000000     -2.325459000000000     -5.193122000000000
O       0.427865000000000     -1.101429000000000     -5.203751000000000
H       1.312277000000000     -1.430981000000000     -5.453428000000000
O      -0.562776000000000     -4.489541000000000      2.639350000000000
H       0.362514000000000     -4.757956000000000      2.705383000000000
O       1.271985000000000      4.133789000000000      2.842241000000000
H       0.524324000000000      4.752264000000000      2.952561000000000
O      -1.238218000000000      4.286376000000000      2.447639000000000
H      -1.638823000000000      3.799459000000000      3.181729000000000
O      -4.958154000000000     -1.330845000000000      1.192493000000000
H      -5.131175000000000     -2.245710000000000      1.472014000000000
O      -3.753083000000000     -3.654319000000000      1.181079000000000
H      -3.995013000000000     -3.956165000000000      0.296496000000000
