128

C      -3.018838000000000     -0.807537000000000      1.921931000000000
C      -2.455897000000000     -2.271852000000000      1.689107000000000
C      -2.675834000000000     -2.515951000000000      0.152940000000000
C      -2.957646000000000     -0.198514000000000      0.542129000000000
C      -2.823529000000000     -1.118795000000000     -0.399321000000000
C      -3.473567000000000      1.174807000000000      0.285766000000000
C      -2.805761000000000      2.210482000000000      1.250206000000000
C      -2.396582000000000      0.066964000000000      3.058439000000000
C      -2.200892000000000      1.618198000000000      2.597553000000000
C      -0.964000000000000     -0.361439000000000      3.599916000000000
C      -1.015618000000000     -2.371018000000000      2.032292000000000
C      -0.451985000000000     -1.802819000000000      3.311955000000000
C      -0.089853000000000     -3.002855000000000      1.299561000000000
C      -1.592864000000000     -3.304633000000000     -0.681475000000000
C      -0.286922000000000     -3.782820000000000      0.051180000000000
C      -1.045076000000000     -2.428816000000000     -1.774148000000000
C      -3.070123000000000     -0.909297000000000     -1.855401000000000
C      -1.935628000000000     -1.631685000000000     -2.674011000000000
C      -3.133912000000000      1.679121000000000     -1.150258000000000
C      -2.984789000000000      0.603261000000000     -2.280108000000000
C      -1.725650000000000      2.825664000000000      0.344853000000000
C      -1.867503000000000      2.476754000000000     -0.921491000000000
C      -0.614308000000000      3.686346000000000      0.880611000000000
C      -0.716721000000000      1.715512000000000      2.461116000000000
C      -0.059758000000000      0.620924000000000      2.969766000000000
C       0.001196000000000      2.662745000000000      1.779206000000000
C       1.285186000000000      0.473962000000000      2.798324000000000
C       1.157525000000000     -1.978488000000000      3.106955000000000
C       1.212002000000000     -2.613772000000000      1.745412000000000
C       2.079870000000000     -0.708345000000000      3.193233000000000
C       2.210285000000000     -2.466112000000000      0.872751000000000
C       0.878138000000000     -3.562431000000000     -1.022751000000000
C       0.263584000000000     -2.554391000000000     -1.951298000000000
C       2.276267000000000     -3.121479000000000     -0.482564000000000
C       1.030403000000000     -2.006175000000000     -3.111055000000000
C      -1.084248000000000     -0.500856000000000     -3.158812000000000
C      -1.596730000000000      0.694983000000000     -2.883370000000000
C       0.297238000000000     -0.745849000000000     -3.714372000000000
C      -1.105831000000000      3.086540000000000     -2.044700000000000
C      -0.850374000000000      1.986724000000000     -3.149362000000000
C       0.568610000000000      4.067242000000000     -0.117711000000000
C       0.330882000000000      3.616368000000000     -1.618121000000000
C       1.346279000000000      2.481334000000000      1.543558000000000
C       1.993559000000000      1.395444000000000      2.057222000000000
C       1.917072000000000      3.457168000000000      0.590260000000000
C       3.333647000000000     -0.569925000000000      2.184111000000000
C       3.098789000000000     -1.345382000000000      0.941322000000000
C       3.409361000000000      1.002291000000000      1.844447000000000
C       3.107171000000000     -2.055157000000000     -1.337973000000000
C       2.475494000000000     -1.511730000000000     -2.685706000000000
C       3.417301000000000     -0.965624000000000     -0.299622000000000
C       1.114775000000000      0.389864000000000     -3.181373000000000
C       0.586139000000000      1.625911000000000     -2.905342000000000
C       1.202167000000000      2.457568000000000     -1.989478000000000
C       2.272186000000000     -0.031493000000000     -2.556989000000000
C       3.032045000000000      2.729620000000000     -0.251096000000000
C       3.911519000000000      1.495113000000000      0.432391000000000
C       3.949896000000000      0.375078000000000     -0.691936000000000
C       2.373507000000000      2.055313000000000     -1.399123000000000
C       2.914132000000000      0.817186000000000     -1.688598000000000
O      -4.401327000000000     -0.942658000000000      2.221924000000000
H      -4.513374000000000     -1.886314000000000      2.474850000000000
O      -4.874551000000000      1.174407000000000      0.395926000000000
H      -5.127302000000000      0.649662000000000      1.168532000000000
O      -4.325650000000000     -1.456599000000000     -2.148456000000000
H      -4.640084000000000     -0.995535000000000     -2.946274000000000
O      -3.233822000000000     -3.158960000000000      2.453581000000000
H      -3.627558000000000     -3.802742000000000      1.843386000000000
O      -3.958152000000000      0.802468000000000     -3.271017000000000
H      -4.425749000000000      1.628640000000000     -3.043941000000000
O      -4.129613000000000      2.608706000000000     -1.554200000000000
H      -4.831519000000000      2.571785000000000     -0.881404000000000
O      -3.911678000000000     -3.186676000000000      0.052752000000000
H      -4.294960000000000     -2.989578000000000     -0.815832000000000
O      -3.772537000000000      3.174243000000000      1.533846000000000
H      -3.415621000000000      3.741833000000000      2.234365000000000
O      -1.845046000000000      4.157850000000000     -2.599106000000000
H      -2.767902000000000      4.068318000000000     -2.315082000000000
O      -1.150581000000000      4.810566000000000      1.509365000000000
H      -0.532907000000000      5.544084000000000      1.363799000000000
O      -2.219424000000000     -4.400833000000000     -1.296605000000000
H      -2.026612000000000     -5.177106000000000     -0.741274000000000
O      -2.658340000000000      2.433346000000000      3.639574000000000
H      -2.962937000000000      1.841076000000000      4.353373000000000
O      -3.249190000000000      0.052979000000000      4.160441000000000
H      -4.135234000000000     -0.197515000000000      3.834469000000000
O      -0.394412000000000     -5.141096000000000      0.358209000000000
H       0.095298000000000     -5.606863000000000     -0.352487000000000
O       1.021886000000000     -4.781349000000000     -1.706900000000000
H       1.917593000000000     -5.109564000000000     -1.486069000000000
O       3.039275000000000     -4.303500000000000     -0.371769000000000
H       3.958049000000000     -4.065357000000000     -0.594506000000000
O       0.662449000000000      5.453639000000000     -0.089360000000000
H       1.103226000000000      5.728101000000000     -0.912788000000000
O       0.653377000000000      4.708019000000000     -2.449974000000000
H      -0.182045000000000      5.115677000000000     -2.730928000000000
O       4.358251000000000     -2.629374000000000     -1.655319000000000
H       4.422885000000000     -2.609591000000000     -2.636335000000000
O       3.354765000000000     -1.823868000000000     -3.737759000000000
H       2.863760000000000     -2.449450000000000     -4.313911000000000
O      -2.439157000000000     -2.418736000000000     -3.715419000000000
H      -2.740020000000000     -3.256844000000000     -3.335786000000000
O       1.180959000000000     -3.005851000000000     -4.085922000000000
H       0.621491000000000     -2.758680000000000     -4.840722000000000
O       5.203357000000000      1.976221000000000      0.642173000000000
H       5.687527000000000      1.891410000000000     -0.192918000000000
O       4.190239000000000      1.611319000000000      2.844356000000000
H       5.059703000000000      1.790491000000000      2.445988000000000
O       4.504499000000000     -0.995511000000000      2.792743000000000
H       4.639755000000000     -0.406368000000000      3.554693000000000
O       5.257034000000000      0.311794000000000     -1.216364000000000
H       5.409879000000000     -0.583190000000000     -1.545374000000000
O      -1.114242000000000      2.462722000000000     -4.439097000000000
H      -1.527041000000000      3.337773000000000     -4.345708000000000
O       0.279779000000000     -0.887705000000000     -5.113574000000000
H      -0.208994000000000     -0.142684000000000     -5.484208000000000
O       2.533323000000000     -0.569464000000000      4.511943000000000
H       2.724857000000000     -1.473176000000000      4.821068000000000
O       1.631909000000000     -2.878516000000000      4.072818000000000
H       0.849508000000000     -3.339421000000000      4.430833000000000
O      -0.844370000000000     -2.636050000000000      4.370647000000000
H      -1.168949000000000     -2.054145000000000      5.085278000000000
O       3.945202000000000      3.679620000000000     -0.709012000000000
H       3.906528000000000      4.434462000000000     -0.094821000000000
O       2.528519000000000      4.544688000000000      1.254474000000000
H       2.946922000000000      4.212211000000000      2.059165000000000
O      -0.980349000000000     -0.188370000000000      5.005879000000000
H      -0.091961000000000      0.069378000000000      5.288505000000000
