128

C       2.740860000000000      0.217929000000000     -2.351127000000000
C       3.069883000000000     -1.126931000000000     -1.588625000000000
C       3.579821000000000     -0.649732000000000     -0.184752000000000
C       2.460288000000000      1.166268000000000     -1.217344000000000
C       2.945441000000000      0.705979000000000     -0.073552000000000
C       2.144495000000000      2.596290000000000     -1.491237000000000
C       0.940454000000000      2.734527000000000     -2.477568000000000
C       1.649104000000000      0.179577000000000     -3.453991000000000
C       0.657745000000000      1.452880000000000     -3.384553000000000
C       0.661161000000000     -1.099145000000000     -3.461096000000000
C       1.871602000000000     -1.989872000000000     -1.429127000000000
C       1.059976000000000     -2.355931000000000     -2.631532000000000
C       1.579053000000000     -2.710712000000000     -0.360852000000000
C       3.247606000000000     -1.493216000000000      1.099723000000000
C       2.331580000000000     -2.767737000000000      0.925338000000000
C       2.461584000000000     -0.646661000000000      2.090445000000000
C       3.123798000000000      1.551587000000000      1.137194000000000
C       2.838409000000000      0.756073000000000      2.462728000000000
C       1.714787000000000      3.347596000000000     -0.184029000000000
C       2.016487000000000      2.558272000000000      1.058541000000000
C      -0.212620000000000      3.066208000000000     -1.518911000000000
C       0.211569000000000      3.391292000000000     -0.311553000000000
C      -1.657749000000000      2.927913000000000     -1.915185000000000
C      -0.605110000000000      0.839364000000000     -2.871751000000000
C      -0.584203000000000     -0.535642000000000     -2.897214000000000
C      -1.658418000000000      1.481197000000000     -2.278000000000000
C      -1.575000000000000     -1.249972000000000     -2.294146000000000
C      -0.123348000000000     -3.298637000000000     -2.035242000000000
C       0.376926000000000     -3.602398000000000     -0.577958000000000
C      -1.598866000000000     -2.724274000000000     -2.110300000000000
C      -0.551244000000000     -3.192644000000000      0.500732000000000
C       1.391988000000000     -2.762946000000000      2.185140000000000
C       1.473784000000000     -1.329549000000000      2.642192000000000
C      -0.070141000000000     -3.262889000000000      1.943451000000000
C       0.580017000000000     -0.865606000000000      3.737522000000000
C       1.682657000000000      1.561691000000000      3.187313000000000
C       1.187736000000000      2.503700000000000      2.089919000000000
C       0.528087000000000      0.714383000000000      3.868961000000000
C      -0.644099000000000      3.859193000000000      0.817042000000000
C      -0.109692000000000      3.265312000000000      2.192583000000000
C      -2.729133000000000      3.028201000000000     -0.742061000000000
C      -2.143232000000000      3.361582000000000      0.692564000000000
C      -2.657729000000000      0.767885000000000     -1.652562000000000
C      -2.615646000000000     -0.597639000000000     -1.659159000000000
C      -3.581656000000000      1.621546000000000     -0.859429000000000
C      -2.592295000000000     -2.834856000000000     -0.859365000000000
C      -1.822251000000000     -2.833597000000000      0.401904000000000
C      -3.515758000000000     -1.531766000000000     -0.936297000000000
C      -1.108465000000000     -2.343184000000000      2.540194000000000
C      -0.811441000000000     -1.264541000000000      3.259485000000000
C      -2.420534000000000     -2.532164000000000      1.756070000000000
C      -0.785861000000000      1.041999000000000      3.203383000000000
C      -1.088130000000000      2.162575000000000      2.471409000000000
C      -2.150114000000000      2.157181000000000      1.579469000000000
C      -1.592263000000000     -0.080799000000000      3.059697000000000
C      -3.986449000000000      0.815617000000000      0.428461000000000
C      -4.070954000000000     -0.851364000000000      0.383234000000000
C      -3.404747000000000     -1.299214000000000      1.760550000000000
C      -2.955423000000000      1.050913000000000      1.468184000000000
C      -2.668512000000000     -0.075907000000000      2.203088000000000
O       3.952124000000000      0.698615000000000     -2.920282000000000
H       3.890307000000000      0.514221000000000     -3.877444000000000
O       1.144314000000000      3.837334000000000     -3.314893000000000
H       2.075009000000000      4.106399000000000     -3.228808000000000
O       4.045276000000000     -1.858137000000000     -2.278140000000000
H       4.872128000000000     -1.353051000000000     -2.201635000000000
O       0.519816000000000      1.871082000000000     -4.717110000000000
H       0.080421000000000      2.734212000000000     -4.710246000000000
O       2.337073000000000      0.185989000000000     -4.671095000000000
H       1.686100000000000      0.415799000000000     -5.353818000000000
O       4.975338000000000     -0.447473000000000     -0.257497000000000
H       5.355237000000000     -1.001265000000000      0.460041000000000
O       3.293558000000000      3.219658000000000     -2.026146000000000
H       3.819161000000000      2.529622000000000     -2.475775000000000
O       4.426265000000000      2.093619000000000      1.161826000000000
H       4.980325000000000      1.567834000000000      0.561839000000000
O       4.462173000000000     -1.902841000000000      1.671592000000000
H       4.500371000000000     -2.874527000000000      1.543479000000000
O       3.139125000000000     -3.917112000000000      0.930038000000000
H       2.958363000000000     -4.383237000000000      1.766829000000000
O       2.018615000000000     -3.581585000000000      3.145737000000000
H       1.661605000000000     -3.350003000000000      4.015184000000000
O       3.973339000000000      0.760695000000000      3.283370000000000
H       4.651695000000000      1.286280000000000      2.810780000000000
O       0.971908000000000     -1.480341000000000      4.932654000000000
H       0.745994000000000     -0.853644000000000      5.643605000000000
O      -0.140639000000000     -4.608964000000000      2.368966000000000
H      -1.080726000000000     -4.834017000000000      2.439655000000000
O       0.484201000000000      0.997791000000000      5.243799000000000
H       1.147706000000000      1.696099000000000      5.408449000000000
O       2.271334000000000      2.356055000000000      4.194837000000000
H       3.162497000000000      1.974075000000000      4.344688000000000
O      -1.987743000000000      3.752757000000000     -2.994295000000000
H      -2.524526000000000      4.484729000000000     -2.654540000000000
O      -0.666743000000000      5.261571000000000      0.844738000000000
H       0.243705000000000      5.574620000000000      0.927739000000000
O       2.235481000000000      4.649152000000000     -0.125384000000000
H       3.117620000000000      4.629825000000000     -0.524648000000000
O      -0.053858000000000      4.307272000000000      3.127472000000000
H       0.422597000000000      3.996232000000000      3.906764000000000
O      -3.597077000000000      4.066834000000000     -1.090688000000000
H      -3.825919000000000      4.510547000000000     -0.242833000000000
O      -2.976986000000000      4.353870000000000      1.257530000000000
H      -2.407954000000000      5.112279000000000      1.476134000000000
O       1.842339000000000     -3.188436000000000     -3.466451000000000
H       2.776661000000000     -2.964461000000000     -3.328454000000000
O       0.463240000000000     -1.486352000000000     -4.790312000000000
H       0.995156000000000     -2.290925000000000     -4.930667000000000
O      -0.156984000000000     -4.477701000000000     -2.778230000000000
H       0.547038000000000     -5.059482000000000     -2.458513000000000
O       0.703621000000000     -4.968931000000000     -0.485543000000000
H       0.705001000000000     -5.222142000000000      0.449988000000000
O      -4.624955000000000     -1.857617000000000     -1.738799000000000
H      -4.714758000000000     -2.829858000000000     -1.691563000000000
O      -3.383446000000000     -3.977329000000000     -0.981651000000000
H      -3.229389000000000     -4.304368000000000     -1.892309000000000
O      -2.283638000000000     -3.359096000000000     -3.164137000000000
H      -1.637890000000000     -3.859171000000000     -3.686142000000000
O      -3.079785000000000     -3.682073000000000      2.218788000000000
H      -3.879816000000000     -3.362217000000000      2.679346000000000
O      -4.415290000000000     -1.621704000000000      2.687470000000000
H      -5.260796000000000     -1.355114000000000      2.288528000000000
O      -5.423401000000000     -1.170859000000000      0.482764000000000
H      -5.738728000000000     -1.312254000000000     -0.431287000000000
O      -5.221402000000000      1.272340000000000      0.879582000000000
H      -5.754595000000000      1.452691000000000      0.085681000000000
O      -4.772461000000000      1.893972000000000     -1.549429000000000
H      -4.752363000000000      2.836608000000000     -1.796693000000000
