132

C       3.245329000000000     -1.536666000000000     -0.985528000000000
C       3.259387000000000     -0.154436000000000     -1.747243000000000
C       2.289660000000000     -0.348325000000000     -2.954586000000000
C       1.909654000000000     -2.091087000000000     -1.398641000000000
C       1.440369000000000     -1.519183000000000     -2.491635000000000
C       1.468810000000000     -3.417202000000000     -0.920137000000000
C       1.557741000000000     -3.448994000000000      0.663186000000000
C       3.541540000000000     -1.523195000000000      0.551512000000000
C       2.546789000000000     -2.441560000000000      1.400991000000000
C       3.489008000000000     -0.113278000000000      1.312792000000000
C       2.807280000000000      0.965611000000000     -0.878719000000000
C       3.502508000000000      1.154579000000000      0.428686000000000
C       2.109805000000000      2.026816000000000     -1.254565000000000
C       1.408831000000000      0.897353000000000     -3.399836000000000
C       1.560534000000000      2.267477000000000     -2.614460000000000
C      -0.023407000000000      0.567722000000000     -3.134929000000000
C       0.219452000000000     -1.941871000000000     -3.257216000000000
C      -0.581019000000000     -0.684933000000000     -3.129062000000000
C      -0.052921000000000     -3.683282000000000     -1.265321000000000
C      -0.680966000000000     -3.056777000000000     -2.571962000000000
C       0.160501000000000     -3.039531000000000      1.018843000000000
C      -0.708339000000000     -3.120946000000000     -0.052921000000000
C      -0.241827000000000     -2.417911000000000      2.171939000000000
C       1.806159000000000     -1.443341000000000      2.275244000000000
C       2.290796000000000     -0.221415000000000      2.196036000000000
C       0.709720000000000     -1.897110000000000      3.200100000000000
C       1.965011000000000      0.876400000000000      3.137515000000000
C       2.843816000000000      2.447835000000000      1.062717000000000
C       2.119813000000000      3.135499000000000     -0.238621000000000
C       1.904859000000000      2.232211000000000      2.314570000000000
C       0.687288000000000      3.737938000000000     -0.081957000000000
C       0.091013000000000      2.884564000000000     -2.569002000000000
C      -0.737815000000000      1.640158000000000     -2.634620000000000
C      -0.312653000000000      3.772137000000000     -1.349324000000000
C      -1.992784000000000      1.433907000000000     -2.124421000000000
C      -1.823335000000000     -0.898530000000000     -2.570981000000000
C      -2.156108000000000     -2.338419000000000     -2.399293000000000
C      -2.514766000000000      0.157169000000000     -2.044617000000000
C      -1.948594000000000     -2.553750000000000      0.032067000000000
C      -2.950121000000000     -2.469944000000000     -1.053873000000000
C      -1.476747000000000     -1.811191000000000      2.240992000000000
C      -2.310238000000000     -1.851130000000000      1.160432000000000
C      -0.099678000000000     -0.758961000000000      3.949081000000000
C       0.503445000000000      0.686495000000000      3.729685000000000
C      -1.672895000000000     -0.972562000000000      3.445730000000000
C       0.485928000000000      2.207677000000000      1.906861000000000
C      -0.057537000000000      2.889382000000000      0.866369000000000
C      -0.296014000000000      1.378561000000000      2.685268000000000
C      -1.784270000000000      3.407858000000000     -0.689273000000000
C      -2.804385000000000      2.449545000000000     -1.410328000000000
C      -1.382447000000000      2.713297000000000      0.546394000000000
C      -3.806597000000000      0.096803000000000     -1.302210000000000
C      -3.940434000000000     -1.254598000000000     -0.521540000000000
C      -3.645469000000000     -1.218264000000000      1.039977000000000
C      -3.848252000000000      1.498808000000000     -0.532523000000000
C      -2.550747000000000      0.255334000000000      3.007025000000000
C      -1.609722000000000      1.200832000000000      2.362923000000000
C      -2.138155000000000      1.830184000000000      1.256860000000000
C      -3.724674000000000      0.117553000000000      1.849203000000000
C      -3.553618000000000      1.457450000000000      1.003409000000000
O       4.169962000000000     -2.401201000000000     -1.619520000000000
H       5.025676000000000     -2.294818000000000     -1.174079000000000
O       2.242630000000000     -4.433137000000000     -1.496053000000000
H       3.125259000000000     -4.069539000000000     -1.680100000000000
O       0.573666000000000     -2.282665000000000     -4.568362000000000
H       0.260183000000000     -3.187810000000000     -4.728010000000000
O       4.562503000000000      0.142998000000000     -2.183279000000000
H       4.655609000000000     -0.276855000000000     -3.056007000000000
O      -0.837244000000000     -4.084302000000000     -3.509086000000000
H      -0.717003000000000     -4.919663000000000     -3.004909000000000
O      -0.249471000000000     -5.080194000000000     -1.349741000000000
H       0.541767000000000     -5.509667000000000     -0.991223000000000
O       3.085930000000000     -0.758820000000000     -4.034493000000000
H       2.494212000000000     -0.885602000000000     -4.792235000000000
O       1.820445000000000     -4.767186000000000      1.049733000000000
H       2.687617000000000     -4.779024000000000      1.490753000000000
O       1.632378000000000      1.130126000000000     -4.758340000000000
H       2.306921000000000      1.830412000000000     -4.812393000000000
O       2.412415000000000      3.118433000000000     -3.317468000000000
H       1.823862000000000      3.720975000000000     -3.816999000000000
O       4.598688000000000     -0.026278000000000      2.185104000000000
H       5.264748000000000      0.511559000000000      1.708909000000000
O       4.862407000000000      1.461823000000000      0.175794000000000
H       5.096776000000000      1.110199000000000     -0.700471000000000
O       1.239045000000000     -2.838384000000000      4.096543000000000
H       0.790723000000000     -2.692296000000000      4.946997000000000
O      -0.061879000000000     -1.054921000000000      5.306099000000000
H      -0.043285000000000     -0.194862000000000      5.770409000000000
O       0.441507000000000      1.363233000000000      4.964860000000000
H       1.350335000000000      1.611073000000000      5.200278000000000
O       2.878115000000000      0.929002000000000      4.193609000000000
H       3.756243000000000      0.708469000000000      3.838675000000000
O      -0.033436000000000      3.627724000000000     -3.758475000000000
H      -0.418844000000000      4.489028000000000     -3.528440000000000
O      -0.378607000000000      5.085129000000000     -1.815518000000000
H      -0.778553000000000      5.609816000000000     -1.100610000000000
O       4.849323000000000     -2.007787000000000      0.671863000000000
H       4.993947000000000     -2.232149000000000      1.603342000000000
O       3.358292000000000     -3.207202000000000      2.274980000000000
H       2.852698000000000     -3.325958000000000      3.099633000000000
O      -2.434639000000000      4.620136000000000     -0.424278000000000
H      -3.035619000000000      4.757906000000000     -1.182815000000000
O      -3.573129000000000      3.255587000000000     -2.259728000000000
H      -4.508623000000000      3.101526000000000     -2.012946000000000
O      -5.117489000000000      2.051497000000000     -0.699258000000000
H      -5.583303000000000      1.466029000000000     -1.336421000000000
O      -3.735955000000000     -3.627252000000000     -1.105765000000000
H      -3.914498000000000     -3.780391000000000     -2.054384000000000
O      -5.256708000000000     -1.675779000000000     -0.714773000000000
H      -5.276544000000000     -2.625774000000000     -0.496966000000000
O      -4.594768000000000     -2.114123000000000      1.614666000000000
H      -4.204357000000000     -2.495531000000000      2.413231000000000
O      -3.002152000000000     -2.833868000000000     -3.404946000000000
H      -2.460771000000000     -3.404060000000000     -3.981381000000000
O      -4.855074000000000      0.162583000000000     -2.250762000000000
H      -5.400318000000000     -0.636567000000000     -2.131450000000000
O       0.809269000000000      5.037488000000000      0.434743000000000
H       1.571400000000000      5.432085000000000     -0.026929000000000
O       2.930107000000000      4.193796000000000     -0.674816000000000
H       3.821200000000000      4.051249000000000     -0.314320000000000
O       3.889069000000000      3.285454000000000      1.450065000000000
H       3.668894000000000      3.634191000000000      2.335749000000000
O       2.140562000000000      3.294104000000000      3.225004000000000
H       1.546639000000000      4.025240000000000      3.007004000000000
O      -2.351893000000000     -1.691809000000000      4.428418000000000
H      -2.704778000000000     -1.036896000000000      5.053231000000000
O      -3.147666000000000      0.755486000000000      4.169181000000000
H      -3.986635000000000      1.170628000000000      3.909845000000000
O      -4.950079000000000      0.184175000000000      2.497640000000000
H      -5.439510000000000     -0.635543000000000      2.302657000000000
O      -4.385132000000000      2.385225000000000      1.663878000000000
H      -4.401074000000000      3.207351000000000      1.159862000000000
