132

C      -3.218311000000000     -0.858198000000000     -1.505445000000000
C      -2.167883000000000     -1.573578000000000     -2.441717000000000
C      -1.559075000000000     -0.434225000000000     -3.317761000000000
C      -2.675976000000000      0.541953000000000     -1.467870000000000
C      -1.868128000000000      0.792610000000000     -2.479595000000000
C      -3.366993000000000      1.600366000000000     -0.702603000000000
C      -3.577076000000000      1.123149000000000      0.780855000000000
C      -3.507761000000000     -1.497042000000000     -0.110479000000000
C      -3.542131000000000     -0.429166000000000      1.074559000000000
C      -2.489901000000000     -2.607941000000000      0.432141000000000
C      -1.106961000000000     -2.246733000000000     -1.648982000000000
C      -1.519310000000000     -3.220654000000000     -0.598819000000000
C       0.173250000000000     -2.348102000000000     -1.966525000000000
C      -0.015019000000000     -0.541343000000000     -3.700449000000000
C       0.823397000000000     -1.777199000000000     -3.168275000000000
C       0.694730000000000      0.582430000000000     -3.018512000000000
C      -1.290170000000000      2.131977000000000     -2.814352000000000
C       0.154474000000000      1.788241000000000     -2.651717000000000
C      -2.511675000000000      2.912684000000000     -0.581275000000000
C      -1.540548000000000      3.290486000000000     -1.753095000000000
C      -2.401833000000000      1.777206000000000      1.473810000000000
C      -1.805629000000000      2.702342000000000      0.724004000000000
C      -1.995170000000000      1.463822000000000      2.894003000000000
C      -2.334066000000000     -0.789455000000000      1.912019000000000
C      -1.791953000000000     -1.945730000000000      1.576279000000000
C      -2.065236000000000     -0.075819000000000      3.194047000000000
C      -0.847318000000000     -2.757310000000000      2.386407000000000
C      -0.154905000000000     -3.810090000000000     -0.027865000000000
C       0.907038000000000     -3.381490000000000     -1.170276000000000
C       0.239667000000000     -3.403094000000000      1.433828000000000
C       2.316798000000000     -2.858361000000000     -0.744766000000000
C       2.270894000000000     -1.203949000000000     -2.840558000000000
C       1.918520000000000      0.200806000000000     -2.501809000000000
C       3.117326000000000     -1.877181000000000     -1.704752000000000
C       2.580160000000000      1.024489000000000     -1.640290000000000
C       0.790425000000000      2.591285000000000     -1.729980000000000
C      -0.043907000000000      3.747825000000000     -1.295744000000000
C       2.017598000000000      2.223495000000000     -1.256175000000000
C      -0.727325000000000      3.617221000000000      1.254641000000000
C       0.312111000000000      4.138777000000000      0.194419000000000
C      -0.523663000000000      1.736796000000000      2.913318000000000
C       0.063490000000000      2.719560000000000      2.154453000000000
C      -0.665982000000000     -0.477337000000000      3.826405000000000
C      -0.025775000000000     -1.875579000000000      3.405673000000000
C       0.213900000000000      0.652375000000000      3.342856000000000
C       1.289590000000000     -2.350561000000000      1.512777000000000
C       2.245160000000000     -2.075324000000000      0.516455000000000
C       1.260400000000000     -1.654580000000000      2.644759000000000
C       3.874749000000000     -0.845317000000000     -0.638462000000000
C       3.839666000000000      0.701642000000000     -0.923324000000000
C       3.136683000000000     -1.092898000000000      0.631719000000000
C       2.801816000000000      2.931578000000000     -0.223545000000000
C       1.786283000000000      3.629913000000000      0.752292000000000
C       1.395270000000000      2.650151000000000      1.804975000000000
C       3.823723000000000      1.744588000000000      0.305999000000000
C       1.551534000000000      0.606569000000000      3.021228000000000
C       2.328540000000000     -0.669540000000000      3.016844000000000
C       3.446600000000000     -0.397635000000000      1.919520000000000
C       2.137774000000000      1.578572000000000      2.224560000000000
C       3.495553000000000      1.176615000000000      1.742458000000000
O      -4.436449000000000     -0.739795000000000     -2.217431000000000
H      -5.012622000000000     -1.466601000000000     -1.923737000000000
O      -4.583554000000000      1.923281000000000     -1.321425000000000
H      -4.922764000000000      1.122307000000000     -1.755010000000000
O      -1.679157000000000      2.502319000000000     -4.108171000000000
H      -2.050519000000000      3.398038000000000     -4.054648000000000
O      -2.799226000000000     -2.548752000000000     -3.231652000000000
H      -3.207231000000000     -2.071564000000000     -3.973526000000000
O      -2.107293000000000      4.360908000000000     -2.460314000000000
H      -2.863485000000000      4.669018000000000     -1.912833000000000
O      -3.402738000000000      4.006149000000000     -0.429830000000000
H      -4.271883000000000      3.645650000000000     -0.198242000000000
O      -2.317936000000000     -0.387030000000000     -4.498260000000000
H      -2.063762000000000      0.422881000000000     -4.966766000000000
O      -4.771221000000000      1.693320000000000      1.238084000000000
H      -5.306244000000000      0.982212000000000      1.633435000000000
O       0.110203000000000     -0.456711000000000     -5.087469000000000
H      -0.073364000000000     -1.335073000000000     -5.454058000000000
O       0.941504000000000     -2.774530000000000     -4.147036000000000
H       1.735385000000000     -2.509226000000000     -4.662621000000000
O      -3.242118000000000     -3.667806000000000      0.987107000000000
H      -3.283851000000000     -4.355636000000000      0.291922000000000
O      -2.200624000000000     -4.296749000000000     -1.222341000000000
H      -2.589681000000000     -3.972175000000000     -2.052590000000000
O      -3.119983000000000     -0.396004000000000      4.059691000000000
H      -2.924851000000000      0.034761000000000      4.906848000000000
O      -0.825850000000000     -0.430541000000000      5.216520000000000
H      -0.487263000000000     -1.275716000000000      5.568268000000000
O       0.210955000000000     -2.610562000000000      4.584319000000000
H      -0.310843000000000     -3.427728000000000      4.514489000000000
O      -1.539534000000000     -3.732887000000000      3.117553000000000
H      -2.294977000000000     -4.026394000000000      2.576068000000000
O       2.972265000000000     -1.265716000000000     -4.059472000000000
H       3.842789000000000     -1.657409000000000     -3.869282000000000
O       4.115886000000000     -2.589961000000000     -2.362910000000000
H       4.762332000000000     -2.858323000000000     -1.688704000000000
O      -4.760319000000000     -2.111630000000000     -0.232387000000000
H      -5.144637000000000     -2.161708000000000      0.658077000000000
O      -4.686936000000000     -0.741471000000000      1.853955000000000
H      -4.428020000000000     -0.684722000000000      2.794553000000000
O       5.201457000000000     -1.258427000000000     -0.549491000000000
H       5.722071000000000     -0.604905000000000     -1.055210000000000
O       4.964825000000000      0.960599000000000     -1.727899000000000
H       5.274783000000000      1.855169000000000     -1.518423000000000
O       5.095793000000000      2.307494000000000      0.346083000000000
H       5.286317000000000      2.497602000000000      1.285727000000000
O       4.463983000000000      1.672446000000000      2.636413000000000
H       5.049810000000000      0.911110000000000      2.833791000000000
O      -0.266299000000000     -5.201065000000000      0.005789000000000
H      -0.109266000000000     -5.524823000000000     -0.896917000000000
O       1.072453000000000     -4.532991000000000     -1.970972000000000
H       1.231385000000000     -4.249106000000000     -2.886431000000000
O       0.801294000000000     -4.514835000000000      2.090810000000000
H       0.331093000000000     -5.305219000000000      1.778621000000000
O       2.970401000000000     -1.030835000000000      4.217371000000000
H       2.331677000000000     -1.492133000000000      4.775828000000000
O       4.698040000000000     -0.828051000000000      2.386106000000000
H       4.547082000000000     -1.266867000000000      3.241071000000000
O       3.166852000000000     -3.965560000000000     -0.537691000000000
H       2.756767000000000     -4.549293000000000      0.112739000000000
O      -2.764309000000000      2.159994000000000      3.834343000000000
H      -2.688103000000000      3.102664000000000      3.636523000000000
O      -1.357878000000000      4.666171000000000      1.949265000000000
H      -1.102457000000000      5.498057000000000      1.520558000000000
O       2.455021000000000      4.736290000000000      1.296637000000000
H       1.834613000000000      5.487173000000000      1.282204000000000
O       3.592209000000000      3.907671000000000     -0.832110000000000
H       3.815291000000000      4.553872000000000     -0.141242000000000
O       0.309655000000000      5.537259000000000      0.277072000000000
H       0.485038000000000      5.844767000000000     -0.640835000000000
O       0.295086000000000      4.878508000000000     -2.075104000000000
H      -0.486901000000000      5.100757000000000     -2.614540000000000
