136

C      -3.242771000000000      1.008814000000000      1.605431000000000
C      -2.209707000000000      0.550520000000000      2.726447000000000
C      -2.169149000000000     -0.995444000000000      2.664514000000000
C      -3.519298000000000     -0.321885000000000      0.777662000000000
C      -2.427892000000000     -1.257266000000000      1.198751000000000
C      -3.819197000000000     -0.241716000000000     -0.742170000000000
C      -3.311217000000000      1.020940000000000     -1.540711000000000
C      -2.850748000000000      2.348429000000000      0.832530000000000
C      -2.843854000000000      2.297590000000000     -0.767047000000000
C      -1.452367000000000      3.073974000000000      1.145290000000000
C      -0.839323000000000      1.089258000000000      2.567028000000000
C      -0.676981000000000      2.562709000000000      2.362011000000000
C       0.261010000000000      0.519076000000000      3.036092000000000
C      -0.865032000000000     -1.722298000000000      3.165015000000000
C       0.391200000000000     -0.857239000000000      3.590672000000000
C      -0.316703000000000     -2.535372000000000      2.028221000000000
C      -2.474001000000000     -2.665770000000000      0.720480000000000
C      -1.112741000000000     -3.355378000000000      1.066614000000000
C      -3.198535000000000     -1.480176000000000     -1.563639000000000
C      -2.577696000000000     -2.728757000000000     -0.838845000000000
C      -2.183570000000000      0.490241000000000     -2.379615000000000
C      -2.132030000000000     -0.833305000000000     -2.405056000000000
C      -1.361515000000000      1.375557000000000     -3.287396000000000
C      -1.405558000000000      2.622070000000000     -1.152818000000000
C      -0.664064000000000      2.996419000000000     -0.128409000000000
C      -0.951834000000000      2.719004000000000     -2.570587000000000
C       0.652244000000000      3.696568000000000     -0.190352000000000
C       0.882725000000000      2.807191000000000      2.357389000000000
C       1.456944000000000      1.451579000000000      2.982858000000000
C       1.565157000000000      3.208579000000000      0.994410000000000
C       2.339575000000000      0.635529000000000      2.127576000000000
C       1.633217000000000     -1.636365000000000      3.001105000000000
C       0.999332000000000     -2.460178000000000      1.928541000000000
C       2.823030000000000     -0.712999000000000      2.517199000000000
C       1.860229000000000     -3.200592000000000      0.967428000000000
C      -0.357687000000000     -3.322200000000000     -0.235033000000000
C      -1.121334000000000     -2.951894000000000     -1.248819000000000
C       1.063279000000000     -3.779205000000000     -0.269881000000000
C      -1.212336000000000     -1.602400000000000     -3.324053000000000
C      -0.659285000000000     -2.913524000000000     -2.667144000000000
C      -0.070139000000000      0.640053000000000     -3.411412000000000
C       0.001206000000000     -0.732715000000000     -3.441962000000000
C       0.635237000000000      2.818153000000000     -2.709540000000000
C       1.480896000000000      3.437771000000000     -1.523667000000000
C       1.002455000000000      1.391792000000000     -2.972050000000000
C       2.352056000000000      2.149942000000000      0.302178000000000
C       2.756977000000000      0.999743000000000      0.875937000000000
C       2.776354000000000      2.588051000000000     -1.044064000000000
C       3.578996000000000     -1.215006000000000      1.194222000000000
C       2.742824000000000     -2.134076000000000      0.372650000000000
C       3.865056000000000      0.118269000000000      0.386207000000000
C       1.829487000000000     -3.239734000000000     -1.525178000000000
C       0.932517000000000     -2.843488000000000     -2.777322000000000
C       1.160141000000000     -1.384591000000000     -3.069489000000000
C       2.639636000000000     -2.088778000000000     -0.942306000000000
C       2.161146000000000      0.752210000000000     -2.624977000000000
C       3.304540000000000      1.384736000000000     -1.909705000000000
C       3.995649000000000      0.110037000000000     -1.172593000000000
C       2.246447000000000     -0.626375000000000     -2.694618000000000
C       3.365841000000000     -1.163129000000000     -1.859564000000000
O      -4.448680000000000      1.284248000000000      2.275548000000000
H      -4.273426000000000      1.143865000000000      3.231454000000000
O      -5.203363000000000     -0.252461000000000     -0.937494000000000
H      -5.609170000000000     -0.591600000000000     -0.118894000000000
O      -3.520765000000000     -3.396877000000000      1.314692000000000
H      -3.905987000000000     -3.931631000000000      0.591707000000000
O      -2.695806000000000      0.947374000000000      3.989383000000000
H      -2.319352000000000      1.825780000000000      4.186536000000000
O      -3.330280000000000     -3.872438000000000     -1.146937000000000
H      -3.910376000000000     -3.621139000000000     -1.893644000000000
O      -4.204935000000000     -1.961161000000000     -2.423341000000000
H      -4.969805000000000     -1.359484000000000     -2.298901000000000
O      -3.263796000000000     -1.470932000000000      3.427460000000000
H      -2.934718000000000     -2.225717000000000      3.953188000000000
O      -4.315063000000000      1.362316000000000     -2.459160000000000
H      -4.581597000000000      2.279257000000000     -2.263979000000000
O      -3.640562000000000      3.358365000000000     -1.228542000000000
H      -3.862603000000000      3.906612000000000     -0.451318000000000
O      -3.802640000000000      3.311731000000000      1.203484000000000
H      -4.548265000000000      2.826377000000000      1.615673000000000
O      -1.196688000000000     -2.563786000000000      4.237609000000000
H      -0.884987000000000     -2.102700000000000      5.042727000000000
O       0.469310000000000     -0.798234000000000      4.987723000000000
H       1.212340000000000     -1.367168000000000      5.254721000000000
O       2.556990000000000     -4.205429000000000      1.655775000000000
H       2.645997000000000     -4.953913000000000      1.041209000000000
O       1.109844000000000     -5.181221000000000     -0.249514000000000
H       0.382868000000000     -5.487939000000000      0.315008000000000
O       2.126823000000000     -2.490006000000000      4.011905000000000
H       2.429284000000000     -3.306459000000000      3.584017000000000
O      -1.285530000000000     -4.675755000000000      1.508102000000000
H      -2.174853000000000     -4.713028000000000      1.904288000000000
O       2.803836000000000     -4.163270000000000     -1.945938000000000
H       2.464948000000000     -4.578463000000000     -2.763006000000000
O      -1.109707000000000     -4.047970000000000     -3.356905000000000
H      -1.714109000000000     -3.732098000000000     -4.051961000000000
O       1.312524000000000     -3.664180000000000     -3.848323000000000
H       0.526559000000000     -4.215363000000000     -4.050997000000000
O       3.734260000000000     -0.591074000000000      3.580346000000000
H       4.265470000000000     -1.402644000000000      3.606951000000000
O       4.773183000000000     -1.839307000000000      1.552071000000000
H       5.424689000000000     -1.116327000000000      1.641006000000000
O       5.061244000000000      0.632547000000000      0.938371000000000
H       5.668231000000000      0.826602000000000      0.205161000000000
O      -1.850458000000000     -1.934657000000000     -4.532310000000000
H      -2.245498000000000     -1.129628000000000     -4.891111000000000
O      -2.016190000000000      1.593612000000000     -4.501248000000000
H      -2.620716000000000      2.340954000000000     -4.362659000000000
O       4.219291000000000      1.930662000000000     -2.826284000000000
H       5.062119000000000      1.454433000000000     -2.707751000000000
O       0.861815000000000      3.572856000000000     -3.875101000000000
H       1.489237000000000      4.281299000000000     -3.631070000000000
O       5.365182000000000      0.144229000000000     -1.487082000000000
H       5.552845000000000     -0.685434000000000     -1.973700000000000
O       4.378653000000000     -1.855559000000000     -2.555817000000000
H       4.137157000000000     -2.799304000000000     -2.557000000000000
O       2.004714000000000      1.731743000000000      4.235941000000000
H       2.671944000000000      1.059210000000000      4.437091000000000
O      -1.252216000000000      3.195193000000000      3.503246000000000
H      -0.511339000000000      3.616165000000000      3.978597000000000
O       1.086584000000000      3.840127000000000      3.273472000000000
H       1.956092000000000      4.230489000000000      3.092633000000000
O      -1.560815000000000      3.809750000000000     -3.184383000000000
H      -0.939534000000000      4.091799000000000     -3.884756000000000
O      -1.702000000000000      4.450590000000000      1.338418000000000
H      -2.066111000000000      4.553110000000000      2.233485000000000
O       3.843301000000000      3.497538000000000     -0.892267000000000
H       4.240544000000000      3.604330000000000     -1.774586000000000
O       1.974589000000000      4.666889000000000     -1.980281000000000
H       1.532759000000000      5.363175000000000     -1.459032000000000
O       0.439466000000000      5.083988000000000     -0.115030000000000
H      -0.333317000000000      5.238643000000000      0.458295000000000
O      -4.713032000000000     -0.904008000000000      1.299251000000000
H      -4.534445000000000     -1.217787000000000      2.207023000000000
O       2.464562000000000      4.252415000000000      1.327948000000000
H       3.114954000000000      4.335234000000000      0.608664000000000
