144

C       3.943912000000000     -0.015106000000000      0.070356000000000
C       3.445975000000000      1.208401000000000     -0.833389000000000
C       2.991502000000000      0.593644000000000     -2.181642000000000
C       3.450495000000000     -1.287702000000000     -0.738920000000000
C       2.475685000000000     -0.746038000000000     -1.741508000000000
C       2.998332000000000     -2.584465000000000      0.012882000000000
C       2.536057000000000     -2.459701000000000      1.515340000000000
C       3.580505000000000      0.098262000000000      1.617742000000000
C       2.806478000000000     -1.118373000000000      2.284720000000000
C       2.707789000000000      1.360658000000000      2.129979000000000
C       2.328719000000000      1.993737000000000     -0.252661000000000
C       2.470981000000000      2.505896000000000      1.136847000000000
C       1.388712000000000      2.628911000000000     -0.932082000000000
C       1.935424000000000      1.391525000000000     -3.041735000000000
C       1.241552000000000      2.652459000000000     -2.406255000000000
C       0.759277000000000      0.488863000000000     -3.291307000000000
C       1.978158000000000     -1.667574000000000     -2.800983000000000
C       0.828876000000000     -0.973257000000000     -3.604569000000000
C       1.770356000000000     -3.297519000000000     -0.709882000000000
C       1.328861000000000     -2.935654000000000     -2.175353000000000
C       1.056096000000000     -2.686362000000000      1.475035000000000
C       0.625956000000000     -3.038702000000000      0.232139000000000
C       0.187426000000000     -2.708262000000000      2.676262000000000
C       1.472953000000000     -0.547843000000000      2.707580000000000
C       1.425776000000000      0.766373000000000      2.620823000000000
C       0.476650000000000     -1.358800000000000      3.464431000000000
C       0.438639000000000      1.656035000000000      3.282588000000000
C       1.178779000000000      3.407166000000000      1.374294000000000
C       0.679607000000000      3.668190000000000     -0.122585000000000
C       0.075076000000000      2.849546000000000      2.335546000000000
C      -0.843773000000000      3.638855000000000     -0.405064000000000
C      -0.268243000000000      2.572274000000000     -2.848960000000000
C      -0.402295000000000      1.102448000000000     -3.133334000000000
C      -1.324283000000000      3.234091000000000     -1.864325000000000
C      -1.754237000000000      0.520786000000000     -3.322534000000000
C      -0.415123000000000     -1.567889000000000     -3.001647000000000
C      -0.152848000000000     -2.590313000000000     -2.215493000000000
C      -1.771391000000000     -1.052962000000000     -3.332312000000000
C      -0.685917000000000     -3.256871000000000     -0.061238000000000
C      -1.168666000000000     -3.381079000000000     -1.458501000000000
C      -1.346419000000000     -2.681742000000000      2.315091000000000
C      -1.764581000000000     -3.293823000000000      0.950377000000000
C      -0.901929000000000     -0.630589000000000      3.575748000000000
C      -0.931153000000000      0.944465000000000      3.633575000000000
C      -1.658528000000000     -1.226134000000000      2.421166000000000
C      -1.140469000000000      2.310177000000000      1.649581000000000
C      -1.568822000000000      2.659652000000000      0.462631000000000
C      -1.992832000000000      1.618228000000000      2.656481000000000
C      -2.620409000000000      2.303234000000000     -1.625462000000000
C      -2.438943000000000      0.885780000000000     -2.034716000000000
C      -2.933678000000000      2.385814000000000     -0.092571000000000
C      -2.831461000000000     -1.429468000000000     -2.223840000000000
C      -2.627431000000000     -2.765503000000000     -1.410972000000000
C      -3.028118000000000     -2.679475000000000      0.169582000000000
C      -2.897596000000000     -0.175687000000000     -1.392211000000000
C      -2.609812000000000     -0.648900000000000      1.731028000000000
C      -3.082091000000000      0.737787000000000      2.013982000000000
C      -3.697992000000000      1.204711000000000      0.613590000000000
C      -3.535006000000000     -1.309049000000000      0.752978000000000
C      -3.817171000000000     -0.134889000000000     -0.234434000000000
O       5.337028000000000     -0.004808000000000     -0.052887000000000
H       5.713723000000000      0.044709000000000      0.844827000000000
O       4.082872000000000     -3.476943000000000      0.029567000000000
H       4.774447000000000     -3.056829000000000     -0.537748000000000
O       3.052047000000000     -2.014471000000000     -3.665749000000000
H       2.665897000000000     -2.531402000000000     -4.390566000000000
O       4.502153000000000      2.116004000000000     -1.006251000000000
H       5.296122000000000      1.568639000000000     -1.158353000000000
O       1.592906000000000     -4.003623000000000     -3.039397000000000
H       1.119814000000000     -4.773845000000000     -2.688681000000000
O       1.985290000000000     -4.685170000000000     -0.669620000000000
H       2.933118000000000     -4.830876000000000     -0.504733000000000
O       4.156815000000000      0.463028000000000     -2.988878000000000
H       4.048498000000000     -0.331846000000000     -3.538703000000000
O       3.079066000000000     -3.516665000000000      2.274694000000000
H       3.909013000000000     -3.790155000000000      1.849023000000000
O       2.517000000000000      1.814382000000000     -4.242770000000000
H       3.464545000000000      1.571351000000000     -4.188755000000000
O       1.818607000000000      3.834791000000000     -2.890895000000000
H       2.191827000000000      3.596303000000000     -3.763137000000000
O       3.356112000000000      1.908750000000000      3.257001000000000
H       3.880249000000000      2.662881000000000      2.918245000000000
O       3.594366000000000      3.361390000000000      1.209847000000000
H       4.159686000000000      3.185548000000000      0.433603000000000
O       1.034075000000000     -1.623271000000000      4.722546000000000
H       0.318764000000000     -1.959197000000000      5.287296000000000
O      -1.499383000000000     -1.140345000000000      4.756948000000000
H      -1.746677000000000     -0.356728000000000      5.290186000000000
O      -1.291404000000000      1.294028000000000      4.942611000000000
H      -0.530251000000000      1.766278000000000      5.328910000000000
O       0.985916000000000      2.118180000000000      4.492836000000000
H       1.945635000000000      2.240536000000000      4.355060000000000
O      -0.419770000000000      3.181809000000000     -4.112260000000000
H      -0.464215000000000      4.142259000000000     -3.966822000000000
O      -1.755020000000000      4.415169000000000     -2.478079000000000
H      -2.623924000000000      4.217707000000000     -2.882406000000000
O       4.822779000000000      0.221846000000000      2.257215000000000
H       4.731755000000000     -0.186098000000000      3.137565000000000
O       3.521611000000000     -1.424276000000000      3.464198000000000
H       2.891823000000000     -1.734610000000000      4.134761000000000
O      -3.686131000000000      2.830494000000000     -2.372478000000000
H      -4.245012000000000      3.323429000000000     -1.742015000000000
O      -5.116343000000000     -0.263990000000000     -0.755952000000000
H      -5.664951000000000     -0.592910000000000     -0.017686000000000
O       0.965992000000000     -1.263349000000000     -4.970421000000000
H       0.082944000000000     -1.255314000000000     -5.364816000000000
O      -1.176492000000000     -4.694641000000000     -1.946559000000000
H      -2.107860000000000     -4.928098000000000     -2.109585000000000
O      -2.102864000000000     -1.547773000000000     -4.592103000000000
H      -2.926865000000000     -1.117185000000000     -4.865343000000000
O      -2.393904000000000      1.009058000000000     -4.469080000000000
H      -2.000277000000000      1.866380000000000     -4.691495000000000
O      -3.463610000000000     -3.730356000000000     -1.975618000000000
H      -4.037606000000000     -3.267166000000000     -2.619309000000000
O      -4.071419000000000     -1.535985000000000     -2.908705000000000
H      -4.754872000000000     -1.112223000000000     -2.354108000000000
O      -3.703209000000000      3.567380000000000      0.067976000000000
H      -4.497621000000000      3.306212000000000      0.576660000000000
O      -4.996975000000000      1.664071000000000      0.861298000000000
H      -5.260133000000000      1.242854000000000      1.709712000000000
O      -4.760996000000000     -1.508027000000000      1.426856000000000
H      -4.923137000000000     -2.469406000000000      1.439321000000000
O       1.196120000000000      4.931312000000000     -0.464038000000000
H       1.318440000000000      4.968354000000000     -1.425433000000000
O      -4.095235000000000     -3.562980000000000      0.350858000000000
H      -3.697985000000000     -4.450413000000000      0.457764000000000
O       1.593514000000000      4.611406000000000      1.943125000000000
H       1.770313000000000      5.222129000000000      1.204422000000000
O      -0.390097000000000      3.898002000000000      3.160704000000000
H       0.236775000000000      4.638397000000000      3.035808000000000
O       0.458443000000000     -3.822963000000000      3.480344000000000
H       1.391842000000000     -4.059607000000000      3.365634000000000
O       4.608477000000000     -1.703084000000000     -1.483813000000000
H       4.308488000000000     -2.044234000000000     -2.346643000000000
O      -4.147055000000000      0.636481000000000      2.934927000000000
H      -4.032300000000000      1.367330000000000      3.569380000000000
O      -2.714015000000000      2.599568000000000      3.371248000000000
H      -2.085377000000000      3.297587000000000      3.628376000000000
O      -2.080909000000000     -3.393254000000000      3.284100000000000
H      -2.019397000000000     -2.912101000000000      4.123800000000000
O      -1.285720000000000      4.929630000000000     -0.086926000000000
H      -2.253697000000000      4.944194000000000     -0.117243000000000
O      -2.043428000000000     -4.668650000000000      1.148888000000000
H      -2.059550000000000     -4.819481000000000      2.109427000000000
