144

C      -3.795778000000000      0.759419000000000      0.514373000000000
C      -3.393278000000000      0.070845000000000      1.942447000000000
C      -2.973356000000000     -1.382801000000000      1.576579000000000
C      -3.663447000000000     -0.409689000000000     -0.523507000000000
C      -2.756494000000000     -1.402138000000000      0.109471000000000
C      -3.371771000000000     -0.083627000000000     -2.009935000000000
C      -2.642201000000000      1.276409000000000     -2.326878000000000
C      -3.056171000000000      2.092985000000000      0.203253000000000
C      -2.732374000000000      2.459152000000000     -1.286491000000000
C      -1.758407000000000      2.327991000000000      0.913053000000000
C      -2.334472000000000      0.829640000000000      2.822832000000000
C      -1.471831000000000      1.791408000000000      2.071412000000000
C      -1.262556000000000      0.013212000000000      3.646966000000000
C      -1.652888000000000     -1.843457000000000      2.081055000000000
C      -0.857653000000000     -1.242795000000000      2.950095000000000
C      -1.188758000000000     -3.212669000000000      1.688765000000000
C      -2.552957000000000     -2.728401000000000     -0.518748000000000
C      -1.386617000000000     -3.537496000000000      0.183819000000000
C      -2.435291000000000     -1.191167000000000     -2.713545000000000
C      -2.087137000000000     -2.549543000000000     -1.998039000000000
C      -1.261617000000000      0.843805000000000     -2.724855000000000
C      -1.145042000000000     -0.445498000000000     -2.968268000000000
C      -0.287088000000000      1.907306000000000     -3.077812000000000
C      -1.369858000000000      3.330605000000000     -1.193411000000000
C      -1.097391000000000      3.545930000000000      0.334242000000000
C      -0.178940000000000      2.679445000000000     -1.797979000000000
C       0.371151000000000      3.817515000000000      0.842180000000000
C      -0.362801000000000      2.269515000000000      2.946018000000000
C       0.022599000000000      0.953733000000000      3.719146000000000
C       0.755038000000000      2.976863000000000      2.147176000000000
C       1.127544000000000      0.216468000000000      3.047727000000000
C       0.349691000000000     -2.101131000000000      3.310298000000000
C       0.313416000000000     -3.221665000000000      2.203235000000000
C       1.611136000000000     -1.164715000000000      3.397648000000000
C       1.260373000000000     -2.918921000000000      1.098627000000000
C      -0.226812000000000     -3.183614000000000     -0.700313000000000
C      -0.577450000000000     -2.681507000000000     -1.869094000000000
C       1.123698000000000     -3.584948000000000     -0.245135000000000
C       0.044905000000000     -1.042654000000000     -3.656159000000000
C       0.406660000000000     -2.424031000000000     -2.959091000000000
C       1.170259000000000      1.417311000000000     -3.401217000000000
C       1.325765000000000     -0.143438000000000     -3.491746000000000
C       1.054981000000000      2.700562000000000     -1.327583000000000
C       1.546120000000000      3.496831000000000     -0.176639000000000
C       2.057728000000000      2.152286000000000     -2.300086000000000
C       1.780335000000000      2.037548000000000      1.624205000000000
C       1.957895000000000      0.800400000000000      2.123325000000000
C       2.652214000000000      2.695551000000000      0.637072000000000
C       2.778417000000000     -1.397013000000000      2.365816000000000
C       2.298263000000000     -2.107919000000000      1.158893000000000
C       3.239958000000000      0.054273000000000      1.964562000000000
C       2.314029000000000     -3.035045000000000     -1.103020000000000
C       1.876579000000000     -2.259753000000000     -2.400442000000000
C       1.988381000000000     -0.770468000000000     -2.303242000000000
C       3.179870000000000     -2.180788000000000     -0.054068000000000
C       3.149768000000000      1.306458000000000     -1.609052000000000
C       3.610439000000000      1.729552000000000     -0.148997000000000
C       3.952284000000000      0.292991000000000      0.597397000000000
C       2.758544000000000     -0.123563000000000     -1.463483000000000
C       3.683017000000000     -0.793875000000000     -0.513768000000000
O      -5.140242000000000      1.135364000000000      0.578274000000000
H      -5.676723000000000      0.351483000000000      0.380087000000000
O      -4.609211000000000     -0.097883000000000     -2.669074000000000
H      -4.669590000000000      0.731489000000000     -3.177362000000000
O      -3.751591000000000     -3.488310000000000     -0.468081000000000
H      -3.610624000000000     -4.237649000000000     -1.073043000000000
O      -4.565230000000000      0.032391000000000      2.705644000000000
H      -4.856130000000000     -0.899642000000000      2.723505000000000
O      -2.610258000000000     -3.627689000000000     -2.720898000000000
H      -2.718738000000000     -3.319761000000000     -3.639361000000000
O      -3.011428000000000     -1.516339000000000     -3.951569000000000
H      -3.920914000000000     -1.152014000000000     -3.932459000000000
O      -3.991329000000000     -2.272086000000000      2.035425000000000
H      -4.165872000000000     -2.925123000000000      1.339056000000000
O      -3.256937000000000      1.748433000000000     -3.517131000000000
H      -2.587223000000000      2.261327000000000     -4.006300000000000
O      -3.760313000000000      3.305587000000000     -1.708584000000000
H      -3.368684000000000      3.955705000000000     -2.317319000000000
O      -3.869056000000000      3.131553000000000      0.734367000000000
H      -4.784874000000000      2.940898000000000      0.470131000000000
O      -1.728353000000000     -0.322823000000000      4.912447000000000
H      -2.202794000000000      0.450950000000000      5.258624000000000
O      -3.030474000000000      1.604502000000000      3.788731000000000
H      -3.970067000000000      1.349475000000000      3.710274000000000
O       2.111398000000000     -1.211616000000000      4.715770000000000
H       3.042296000000000     -1.482267000000000      4.652109000000000
O       0.133630000000000     -2.753399000000000      4.533464000000000
H       0.704104000000000     -2.315413000000000      5.191466000000000
O      -1.595395000000000     -4.923356000000000      0.037413000000000
H      -2.042491000000000     -5.229432000000000      0.844627000000000
O      -1.935929000000000     -4.182314000000000      2.395598000000000
H      -1.964884000000000     -3.927389000000000      3.326144000000000
O       0.650495000000000     -4.467250000000000      2.730704000000000
H       0.485809000000000     -4.423118000000000      3.688942000000000
O       3.797919000000000     -2.116306000000000      3.006612000000000
H       4.354326000000000     -2.517062000000000      2.320446000000000
O      -0.810346000000000      2.681294000000000     -4.131246000000000
H      -0.113900000000000      2.707401000000000     -4.815988000000000
O      -0.235138000000000     -1.225305000000000     -5.009371000000000
H      -0.303240000000000     -2.187370000000000     -5.155023000000000
O       1.505364000000000      1.928002000000000     -4.665871000000000
H       2.215560000000000      2.582458000000000     -4.514777000000000
O       2.181973000000000     -0.434317000000000     -4.578226000000000
H       1.973761000000000      0.200497000000000     -5.283914000000000
O       4.324865000000000     -2.929545000000000      0.304187000000000
H       4.321456000000000     -3.698829000000000     -0.309911000000000
O       3.113714000000000     -4.111410000000000     -1.496028000000000
H       2.622765000000000     -4.925202000000000     -1.274248000000000
O       1.223326000000000     -4.987857000000000     -0.185204000000000
H       0.340098000000000     -5.345477000000000      0.009847000000000
O       0.360478000000000     -3.456243000000000     -3.899856000000000
H       1.297335000000000     -3.665262000000000     -4.103816000000000
O       4.885640000000000     -0.979823000000000     -1.231666000000000
H       5.400174000000000     -1.643848000000000     -0.740801000000000
O       4.058325000000000      0.544243000000000      2.998894000000000
H       4.977254000000000      0.457202000000000      2.685727000000000
O       5.323597000000000      0.279814000000000      0.880693000000000
H       5.708074000000000      1.033836000000000      0.382163000000000
O       3.486731000000000      3.649312000000000      1.270709000000000
H       3.003377000000000      4.005875000000000      2.036552000000000
O       4.838883000000000      2.379500000000000     -0.309155000000000
H       4.836512000000000      3.154523000000000      0.280635000000000
O       2.667429000000000      3.232786000000000     -2.968313000000000
H       2.944534000000000      3.887108000000000     -2.309107000000000
O      -0.850975000000000      3.243936000000000      3.837960000000000
H      -1.681790000000000      2.915988000000000      4.215893000000000
O       1.442142000000000      3.848469000000000      3.024905000000000
H       0.830564000000000      4.063766000000000      3.748306000000000
O       0.512460000000000      5.175247000000000      1.139436000000000
H      -0.347361000000000      5.500962000000000      1.449504000000000
O      -1.828878000000000      4.696685000000000      0.727331000000000
H      -2.762725000000000      4.417779000000000      0.842950000000000
O      -4.952803000000000     -1.039326000000000     -0.468224000000000
H      -4.908300000000000     -1.891179000000000     -0.928140000000000
O      -1.577414000000000      4.557460000000000     -1.835582000000000
H      -1.771563000000000      5.207866000000000     -1.134340000000000
O       2.106003000000000      4.670085000000000     -0.696937000000000
H       1.901219000000000      5.387205000000000     -0.072711000000000
O       2.738321000000000     -2.730010000000000     -3.412997000000000
H       2.871661000000000     -2.006187000000000     -4.052467000000000
O       4.246784000000000      1.370311000000000     -2.481436000000000
H       4.868297000000000      0.662385000000000     -2.248506000000000
O       0.343991000000000      1.271139000000000      5.043988000000000
H       0.908260000000000      0.572711000000000      5.401245000000000
