148

C       3.006147000000000     -2.582185000000000     -0.054623000000000
C       1.610623000000000     -3.369889000000000      0.090556000000000
C       1.142921000000000     -3.134220000000000      1.544635000000000
C       3.081274000000000     -1.715299000000000      1.259769000000000
C       1.711662000000000     -1.779458000000000      1.813638000000000
C       3.684308000000000     -0.301185000000000      1.247479000000000
C       3.736109000000000      0.476146000000000     -0.119673000000000
C       3.235711000000000     -1.870397000000000     -1.463938000000000
C       3.717073000000000     -0.313650000000000     -1.462578000000000
C       2.024564000000000     -1.885555000000000     -2.496870000000000
C       0.523644000000000     -2.948366000000000     -0.822616000000000
C       0.835295000000000     -2.848183000000000     -2.270232000000000
C      -0.776973000000000     -2.986602000000000     -0.567419000000000
C      -0.393331000000000     -3.179282000000000      1.872536000000000
C      -1.376360000000000     -3.456756000000000      0.704960000000000
C      -0.893829000000000     -1.870048000000000      2.405304000000000
C       1.356010000000000     -1.175002000000000      3.110927000000000
C      -0.127537000000000     -0.995539000000000      3.019940000000000
C       2.901808000000000      0.730699000000000      2.212764000000000
C       1.952251000000000      0.232012000000000      3.357364000000000
C       2.655293000000000      1.517087000000000     -0.000522000000000
C       2.224455000000000      1.663018000000000      1.241705000000000
C       2.546851000000000      2.587657000000000     -1.029137000000000
C       2.795262000000000      0.425657000000000     -2.553552000000000
C       1.617865000000000     -0.460637000000000     -2.561500000000000
C       2.408139000000000      1.957973000000000     -2.462320000000000
C       0.368239000000000     -0.111707000000000     -2.937858000000000
C      -0.561545000000000     -2.430489000000000     -2.881515000000000
C      -1.606705000000000     -2.954866000000000     -1.817156000000000
C      -0.684224000000000     -0.976079000000000     -3.003131000000000
C      -2.938171000000000     -2.156526000000000     -1.666477000000000
C      -2.728815000000000     -2.717195000000000      1.048573000000000
C      -2.391237000000000     -1.857315000000000      2.368976000000000
C      -3.338990000000000     -1.880084000000000     -0.132401000000000
C      -2.985672000000000     -0.421997000000000      2.595593000000000
C      -0.589077000000000      0.205063000000000      3.748734000000000
C       0.681028000000000      1.198174000000000      3.687850000000000
C      -1.952270000000000      0.667563000000000      3.187243000000000
C       1.556473000000000      2.878458000000000      1.781749000000000
C       0.444883000000000      2.465750000000000      2.800349000000000
C       1.268433000000000      3.463577000000000     -0.792624000000000
C       0.828845000000000      3.762208000000000      0.686096000000000
C       0.888230000000000      2.298318000000000     -2.889695000000000
C       0.040436000000000      1.200647000000000     -3.546258000000000
C       0.260080000000000      2.733819000000000     -1.610344000000000
C      -1.949734000000000     -0.310104000000000     -3.368144000000000
C      -3.029755000000000     -0.693489000000000     -2.299829000000000
C      -1.562937000000000      1.243651000000000     -3.460765000000000
C      -3.113949000000000     -0.408120000000000      0.038595000000000
C      -3.556387000000000      0.259176000000000      1.291382000000000
C      -2.990816000000000      0.227379000000000     -1.115191000000000
C      -1.789426000000000      1.617992000000000      2.050401000000000
C      -0.744470000000000      2.389987000000000      1.893141000000000
C      -0.725435000000000      3.558497000000000      0.962863000000000
C      -3.091483000000000      1.747806000000000      1.326808000000000
C      -1.029674000000000      2.687385000000000     -1.388215000000000
C      -2.079598000000000      2.204077000000000     -2.335241000000000
C      -3.159288000000000      1.686900000000000     -1.343685000000000
C      -1.678507000000000      3.393007000000000     -0.243350000000000
C      -3.022082000000000      2.559753000000000     -0.022459000000000
O       3.996033000000000     -3.559323000000000      0.107126000000000
H       4.385613000000000     -3.719586000000000     -0.774130000000000
O       5.020400000000000     -0.372377000000000      1.667306000000000
H       5.111059000000000     -1.192308000000000      2.186742000000000
O       1.662443000000000     -2.075956000000000      4.165456000000000
H       2.166452000000000     -1.573168000000000      4.825883000000000
O       1.817694000000000     -4.729554000000000     -0.196204000000000
H       2.357644000000000     -5.097193000000000      0.520333000000000
O       2.708740000000000      0.130240000000000      4.531614000000000
H       3.362540000000000      0.849998000000000      4.513606000000000
O       3.914970000000000      1.492156000000000      2.861681000000000
H       4.764541000000000      1.202021000000000      2.467017000000000
O       1.803701000000000     -4.119762000000000      2.331493000000000
H       1.551293000000000     -3.947469000000000      3.255191000000000
O       4.907239000000000      1.254557000000000     -0.082339000000000
H       5.662931000000000      0.690000000000000     -0.300805000000000
O       2.512146000000000      3.703101000000000      2.403904000000000
H       3.274120000000000      3.153494000000000      2.658116000000000
O       3.678750000000000      3.394470000000000     -0.911352000000000
H       3.992159000000000      3.589466000000000     -1.807987000000000
O      -0.630459000000000     -4.152654000000000      2.865441000000000
H      -0.772636000000000     -4.988169000000000      2.378654000000000
O       5.035781000000000     -0.313415000000000     -1.949088000000000
H       4.981452000000000      0.049754000000000     -2.861063000000000
O       4.253295000000000     -2.612197000000000     -2.086473000000000
H       5.026045000000000     -2.014361000000000     -2.170315000000000
O      -1.579997000000000     -4.841412000000000      0.613731000000000
H      -2.536877000000000     -4.991529000000000      0.744927000000000
O      -3.646066000000000     -3.714271000000000      1.392246000000000
H      -4.494440000000000     -3.464585000000000      0.968919000000000
O      -4.742753000000000     -2.091917000000000     -0.090633000000000
H      -5.151588000000000     -1.337470000000000      0.379986000000000
O       1.488263000000000      4.687932000000000     -1.461461000000000
H       1.434654000000000      5.381794000000000     -0.774210000000000
O       1.122296000000000      5.106271000000000      0.941156000000000
H       1.890161000000000      5.113936000000000      1.543418000000000
O      -4.965892000000000      0.181007000000000      1.279223000000000
H      -5.254027000000000      0.310351000000000      2.200177000000000
O      -3.977525000000000      2.411003000000000      2.210895000000000
H      -4.295640000000000      3.201703000000000      1.730552000000000
O      -4.077806000000000      3.477896000000000      0.009234000000000
H      -4.774261000000000      3.136702000000000     -0.581716000000000
O      -4.437850000000000      1.892692000000000     -1.912760000000000
H      -4.303213000000000      2.612276000000000     -2.565848000000000
O      -2.693225000000000      3.318480000000000     -2.946952000000000
H      -2.053980000000000      3.757765000000000     -3.518956000000000
O      -2.062486000000000      1.758598000000000     -4.654562000000000
H      -2.182423000000000      1.004690000000000     -5.258491000000000
O      -0.812842000000000     -3.018428000000000     -4.123775000000000
H      -0.843435000000000     -3.978257000000000     -3.964994000000000
O      -1.882270000000000     -4.289032000000000     -2.154397000000000
H      -2.830711000000000     -4.344007000000000     -2.367096000000000
O       1.180748000000000     -4.109123000000000     -2.801534000000000
H       1.438429000000000     -4.687469000000000     -2.063620000000000
O       2.555546000000000     -2.187460000000000     -3.778514000000000
H       2.366472000000000     -3.129922000000000     -3.938880000000000
O      -3.917151000000000     -2.958345000000000     -2.251461000000000
H      -4.624514000000000     -2.366169000000000     -2.563052000000000
O      -4.302795000000000     -0.618977000000000     -2.895092000000000
H      -4.631487000000000      0.293212000000000     -2.803754000000000
O       3.267289000000000      2.690542000000000     -3.284503000000000
H       3.332552000000000      2.229198000000000     -4.133288000000000
O       0.204973000000000      3.582682000000000      3.633926000000000
H       0.558507000000000      3.362175000000000      4.513023000000000
O       0.904469000000000      1.680222000000000      4.980760000000000
H       0.539724000000000      1.003823000000000      5.586470000000000
O      -2.412091000000000     -0.718724000000000     -4.635184000000000
H      -2.011192000000000     -1.579688000000000     -4.836652000000000
O       0.396717000000000      1.095158000000000     -4.902281000000000
H       0.381921000000000      1.997232000000000     -5.257908000000000
O      -4.064444000000000     -0.505753000000000      3.482497000000000
H      -3.936665000000000     -1.309056000000000      4.014541000000000
O       3.889638000000000     -2.411440000000000      2.213985000000000
H       3.524010000000000     -3.309508000000000      2.311946000000000
O       0.905271000000000      3.375350000000000     -3.794605000000000
H       1.266528000000000      4.143287000000000     -3.318741000000000
O      -2.580352000000000      1.327882000000000      4.261460000000000
H      -3.336239000000000      1.822600000000000      3.901678000000000
O      -2.839190000000000     -2.611776000000000      3.477821000000000
H      -2.247730000000000     -3.379516000000000      3.571471000000000
O      -0.761145000000000     -0.156370000000000      5.102529000000000
H      -1.575300000000000      0.288979000000000      5.398001000000000
O      -2.010086000000000      4.664020000000000     -0.722386000000000
H      -2.103669000000000      5.241529000000000      0.051758000000000
O      -1.236789000000000      4.672910000000000      1.654248000000000
H      -0.732745000000000      4.765224000000000      2.479603000000000
O       3.489157000000000      0.305216000000000     -3.795188000000000
H       3.251428000000000     -0.559990000000000     -4.180082000000000
