152

C       2.400323000000000     -2.183135000000000      1.959529000000000
C       3.335357000000000     -1.233715000000000      1.098498000000000
C       3.327480000000000     -1.839008000000000     -0.344097000000000
C       1.592149000000000     -2.932053000000000      0.842396000000000
C       1.840268000000000     -2.218443000000000     -0.548348000000000
C       0.246206000000000     -3.558667000000000      1.285867000000000
C      -0.619576000000000     -2.796986000000000      2.331650000000000
C       1.629090000000000     -1.510349000000000      3.183425000000000
C       0.076568000000000     -1.903861000000000      3.400392000000000
C       1.634747000000000      0.072569000000000      3.302418000000000
C       2.822873000000000      0.159607000000000      1.073742000000000
C       2.628874000000000      0.809880000000000      2.403863000000000
C       3.533660000000000      1.145608000000000      0.199768000000000
C       3.434821000000000     -0.870003000000000     -1.525332000000000
C       3.653171000000000      0.702013000000000     -1.297293000000000
C       1.963813000000000     -1.033594000000000     -1.972153000000000
C       1.327857000000000     -3.202593000000000     -1.609307000000000
C       1.408896000000000     -2.208539000000000     -2.783750000000000
C      -0.737870000000000     -3.863262000000000      0.055639000000000
C      -0.195213000000000     -3.516305000000000     -1.377432000000000
C      -1.662178000000000     -2.151291000000000      1.483275000000000
C      -2.100445000000000     -3.107383000000000      0.430013000000000
C      -2.358166000000000     -1.099479000000000      1.822640000000000
C      -0.698009000000000     -0.523152000000000      3.641379000000000
C       0.230551000000000      0.482699000000000      3.069469000000000
C      -2.129170000000000     -0.365697000000000      3.094884000000000
C      -0.119893000000000      1.687409000000000      2.694250000000000
C       2.328950000000000      2.330915000000000      2.068949000000000
C       2.763533000000000      2.468059000000000      0.568143000000000
C       0.844897000000000      2.807874000000000      2.406983000000000
C       1.572127000000000      2.583100000000000     -0.294284000000000
C       2.663219000000000      1.400931000000000     -2.327655000000000
C       1.869834000000000      0.198290000000000     -2.924443000000000
C       1.864561000000000      2.610277000000000     -1.756415000000000
C       0.545241000000000      0.601522000000000     -3.573238000000000
C      -0.076266000000000     -1.942226000000000     -3.238849000000000
C      -0.832662000000000     -2.300880000000000     -2.001938000000000
C      -0.465196000000000     -0.566389000000000     -3.866680000000000
C      -2.904134000000000     -2.387108000000000     -0.668757000000000
C      -2.004702000000000     -1.802490000000000     -1.690786000000000
C      -3.627572000000000     -0.623921000000000      1.191568000000000
C      -3.873641000000000     -1.172344000000000     -0.264445000000000
C      -2.650895000000000      1.097914000000000      2.757157000000000
C      -1.524102000000000      2.208843000000000      2.721692000000000
C      -3.476191000000000      0.914464000000000      1.419671000000000
C       0.003138000000000      3.710978000000000      1.401814000000000
C       0.588404000000000      3.705769000000000     -0.036561000000000
C      -1.489530000000000      3.190640000000000      1.515096000000000
C       0.460718000000000      2.863507000000000     -2.381117000000000
C      -0.184734000000000      1.569016000000000     -2.708742000000000
C      -0.351561000000000      3.702296000000000     -1.325417000000000
C      -1.862667000000000      0.058373000000000     -3.362298000000000
C      -2.774028000000000     -0.851130000000000     -2.532322000000000
C      -3.764423000000000     -0.140884000000000     -1.516748000000000
C      -1.458875000000000      1.268575000000000     -2.587130000000000
C      -2.807836000000000      1.518433000000000      0.243213000000000
C      -1.953296000000000      2.529765000000000      0.273437000000000
C      -1.821627000000000      3.213056000000000     -1.058538000000000
C      -3.450642000000000      1.342357000000000     -1.098880000000000
C      -2.480111000000000      2.165912000000000     -2.021007000000000
O       3.268032000000000     -3.146734000000000      2.509434000000000
H       3.253949000000000     -2.984524000000000      3.480762000000000
O       0.535545000000000     -4.782662000000000      1.926777000000000
H       1.480626000000000     -4.978480000000000      1.763537000000000
O       2.047252000000000     -4.379641000000000     -1.858906000000000
H       2.532342000000000     -4.244965000000000     -2.694272000000000
O       4.646274000000000     -1.267737000000000      1.587844000000000
H       4.730980000000000     -2.094326000000000      2.100103000000000
O      -0.504800000000000     -4.597540000000000     -2.237918000000000
H      -0.841738000000000     -5.321059000000000     -1.677230000000000
O      -0.999962000000000     -5.237737000000000      0.056563000000000
H      -0.615895000000000     -5.594953000000000      0.884491000000000
O       4.318847000000000     -2.812303000000000     -0.482478000000000
H       4.207549000000000     -3.459688000000000      0.232148000000000
O      -1.371347000000000     -3.789503000000000      3.018589000000000
H      -0.908103000000000     -3.992603000000000      3.847916000000000
O       0.018894000000000     -2.605699000000000      4.616408000000000
H      -0.304014000000000     -1.924462000000000      5.264875000000000
O       2.331156000000000     -1.953391000000000      4.319469000000000
H       1.672421000000000     -2.354586000000000      4.923678000000000
O       4.411863000000000     -1.286424000000000     -2.433733000000000
H       4.828172000000000     -2.079756000000000     -2.055469000000000
O       4.959088000000000      1.011421000000000     -1.690554000000000
H       5.225911000000000      0.314443000000000     -2.321285000000000
O       3.428890000000000      1.975981000000000     -3.357928000000000
H       3.586458000000000      1.282986000000000     -4.022373000000000
O       2.653797000000000      3.779751000000000     -2.005982000000000
H       3.140233000000000      3.606808000000000     -2.833914000000000
O       0.585007000000000      3.578769000000000     -3.589151000000000
H       0.284974000000000      4.489059000000000     -3.400460000000000
O      -3.167965000000000      2.842728000000000     -3.034850000000000
H      -3.259241000000000      2.231931000000000     -3.787162000000000
O      -4.738560000000000      1.525676000000000      1.535228000000000
H      -4.906546000000000      1.618501000000000      2.492190000000000
O      -2.344320000000000      4.268789000000000      1.797182000000000
H      -1.803591000000000      5.078119000000000      1.680921000000000
O      -0.408470000000000      5.005297000000000     -1.832982000000000
H      -1.269998000000000      5.370574000000000     -1.549527000000000
O      -2.642043000000000      4.364010000000000     -1.035966000000000
H      -3.362362000000000      4.215514000000000     -1.669786000000000
O      -3.581165000000000      1.453865000000000      3.738589000000000
H      -3.120880000000000      2.102475000000000      4.314238000000000
O      -1.691063000000000      2.985066000000000      3.886376000000000
H      -2.052934000000000      3.842761000000000      3.580885000000000
O      -0.007989000000000      5.029015000000000      1.857389000000000
H       0.386308000000000      4.995388000000000      2.756733000000000
O       3.652120000000000      3.560374000000000      0.481175000000000
H       3.620891000000000      3.897462000000000     -0.430930000000000
O       3.190050000000000      3.102671000000000      2.856616000000000
H       3.684183000000000      3.680903000000000      2.245945000000000
O       3.837417000000000      0.737013000000000      3.130168000000000
H       4.567886000000000      0.976984000000000      2.533544000000000
O      -4.678827000000000      2.053893000000000     -1.085706000000000
H      -5.006967000000000      2.073407000000000     -0.167099000000000
O      -2.578147000000000      0.528483000000000     -4.477704000000000
H      -2.984595000000000     -0.251890000000000     -4.888581000000000
O      -0.549450000000000     -0.783612000000000     -5.234932000000000
H      -0.238937000000000      0.028008000000000     -5.673529000000000
O       0.841616000000000      1.209513000000000     -4.814135000000000
H       0.916686000000000      2.169705000000000     -4.680557000000000
O       2.138223000000000     -2.726845000000000     -3.862454000000000
H       1.442689000000000     -3.012549000000000     -4.506032000000000
O      -5.013450000000000     -0.129517000000000     -2.152711000000000
H      -5.381194000000000      0.771638000000000     -2.025869000000000
O      -3.688427000000000     -3.340538000000000     -1.351430000000000
H      -4.023488000000000     -3.952933000000000     -0.676378000000000
O      -0.759180000000000     -0.338552000000000      5.040934000000000
H      -1.702454000000000     -0.307416000000000      5.280210000000000
O      -5.179703000000000     -1.675194000000000     -0.263865000000000
H      -5.602156000000000     -1.347781000000000     -1.087803000000000
O      -2.958160000000000     -0.924030000000000      4.092979000000000
H      -3.854514000000000     -0.999245000000000      3.722444000000000
O       2.421649000000000     -4.086295000000000      0.635915000000000
H       2.265697000000000     -4.493948000000000     -0.241688000000000
O       1.891318000000000      0.411732000000000      4.635436000000000
H       2.854936000000000      0.506111000000000      4.717944000000000
O      -3.008820000000000     -4.035775000000000      0.968995000000000
H      -2.672291000000000     -4.316598000000000      1.835975000000000
O      -4.678283000000000     -1.055507000000000      2.035182000000000
H      -5.331598000000000     -1.498306000000000      1.462537000000000
O       0.925140000000000      3.563099000000000      3.594329000000000
H       1.861021000000000      3.534915000000000      3.878833000000000
O      -0.330639000000000     -2.906311000000000     -4.240197000000000
H      -0.613869000000000     -3.730862000000000     -3.803703000000000
O      -3.520351000000000     -1.592035000000000     -3.466782000000000
H      -3.902211000000000     -2.360429000000000     -3.012615000000000
O       2.717517000000000     -0.204139000000000     -3.985992000000000
H       2.561353000000000     -1.124396000000000     -4.263750000000000
O       4.837744000000000      1.273015000000000      0.726317000000000
H       5.460585000000000      1.248156000000000     -0.024210000000000
O       1.330957000000000      4.903476000000000     -0.056186000000000
H       1.678848000000000      5.047980000000000     -0.949670000000000
