60
charge:=0
C        0.20530982      -0.07397000      -3.51704636
C        0.27769744       1.34013902      -3.24708880
C       -1.03567125       1.78662839      -2.85526305
C       -1.15280985      -0.50144686      -3.29205775
C       -1.91977622       0.64845947      -2.88305403
C       -1.40459592      -1.74192635      -2.72251078
C       -0.30797547      -2.60270296      -2.35602046
C        1.26125578      -0.90282182      -3.16414167
C        0.99977241      -2.19108305      -2.57266046
C        2.43026244      -0.34948499      -2.52769374
C        1.40335118       1.87296219      -2.63424953
C        2.49997702       1.01218384      -2.26775353
C        1.25898920       2.87277760      -1.60597585
C       -1.17468139       2.74936570      -1.86512547
C       -0.00567687       3.30270698      -1.22867658
C       -2.20314452       2.61102372      -0.86464852
C       -2.91010025       0.51524758      -1.91968491
C       -3.05446213       1.51507131      -0.89140553
C       -2.43305074      -1.88026697      -1.72203053
C       -3.17159384      -0.77300503      -1.32820755
C       -0.65868549      -3.27303735      -1.12904241
C       -1.97205345      -2.82653970      -0.73721221
C        0.31135800      -3.50687899      -0.16420586
C        2.00716951      -2.43392954      -1.57067113
C        2.89126099      -1.29575894      -1.54287733
C        1.66946033      -3.07940228      -0.38918757
C        3.40486632      -0.84527402      -0.33463711
C        3.03335541       1.48001608      -1.01298137
C        2.26638598       2.62993243      -0.60398072
C        3.47725575       0.56883459      -0.06468344
C        1.97176085       2.82602121       0.73815303
C       -0.31164991       3.50633898       0.16514173
C       -1.66975972       3.07885684       0.39012138
C        0.65839671       3.27251238       1.12997679
C       -2.00747270       2.43339045       1.57160063
C       -3.40517471       0.84474481       0.33556511
C       -3.47757165      -0.56937012       0.06561676
C       -2.89156380       1.29522275       1.54381130
C       -2.26668951      -2.63046512       0.60491560
C       -3.03365318      -1.48054400       1.01391344
C        0.00537985      -3.30325030       1.22961904
C       -1.25928901      -2.87331496       1.60691448
C        2.20285175      -2.61156421       0.86558240
C        3.05415656      -1.51561130       0.89234006
C        1.17437934      -2.74991247       1.86606213
C        3.17128823       0.77247267       1.32914049
C        2.43275233       1.87974206       1.72297189
C        2.90979438      -0.51577451       1.92061497
C        0.30767828       2.60218041       2.35696448
C       -1.00006535       2.19055011       2.57359642
C        1.40430314       1.74140366       2.72344906
C       -2.43056212       0.34895006       2.52862453
C       -2.50027778      -1.01271865       2.26868735
C       -1.40365206      -1.87350073       2.63518136
C       -1.26155535       0.90228979       3.16506953
C        1.03536882      -1.78716453       2.85619228
C        1.91947157      -0.64898695       2.88398036
C        1.15250678       0.50091535       3.29298335
C       -0.27799330      -1.34067239       3.24801220
C       -0.20560866       0.07343867       3.51797215
