120

C       3.560935000000000     -0.683381000000000      0.773887000000000
C       3.579528000000000      0.884371000000000      0.523340000000000
C       3.468021000000000      1.052707000000000     -1.026118000000000
C       2.913344000000000     -1.197125000000000     -0.480419000000000
C       2.914656000000000     -0.293629000000000     -1.445565000000000
C       2.714906000000000     -2.656892000000000     -0.674966000000000
C       1.977581000000000     -3.295793000000000      0.570805000000000
C       2.894915000000000     -1.194365000000000      2.085681000000000
C       2.069771000000000     -2.562845000000000      1.968231000000000
C       1.883100000000000     -0.245381000000000      2.677458000000000
C       2.444670000000000      1.565545000000000      1.198434000000000
C       1.854630000000000      1.068015000000000      2.398898000000000
C       1.719159000000000      2.590342000000000      0.729929000000000
C       2.633535000000000      2.294241000000000     -1.600532000000000
C       1.888594000000000      3.257949000000000     -0.580032000000000
C       1.498038000000000      1.753469000000000     -2.421204000000000
C       2.524035000000000     -0.546343000000000     -2.860613000000000
C       1.493292000000000      0.547107000000000     -3.062429000000000
C       1.803702000000000     -3.001307000000000     -1.915224000000000
C       1.714967000000000     -1.907613000000000     -3.068516000000000
C       0.560202000000000     -3.341797000000000      0.062100000000000
C       0.460031000000000     -3.249656000000000     -1.266412000000000
C      -0.586182000000000     -3.271641000000000      0.894229000000000
C       0.704101000000000     -2.154425000000000      2.541252000000000
C       0.741771000000000     -0.938749000000000      3.157394000000000
C      -0.521547000000000     -2.712614000000000      2.135752000000000
C      -0.414927000000000     -0.252676000000000      3.797917000000000
C       0.864598000000000      2.051790000000000      2.963249000000000
C       0.785632000000000      3.151123000000000      1.768656000000000
C      -0.456012000000000      1.320248000000000      3.405266000000000
C      -0.620872000000000      3.459617000000000      1.162542000000000
C       0.501301000000000      3.624807000000000     -1.286248000000000
C       0.302301000000000      2.467734000000000     -2.216250000000000
C      -0.754002000000000      3.878619000000000     -0.376342000000000
C      -0.893572000000000      1.988812000000000     -2.662340000000000
C       0.254656000000000     -0.020991000000000     -3.383019000000000
C       0.284979000000000     -1.415052000000000     -3.216869000000000
C      -0.922837000000000      0.693074000000000     -3.197855000000000
C      -0.863615000000000     -3.264865000000000     -1.974222000000000
C      -0.869275000000000     -2.011488000000000     -2.808104000000000
C      -1.865948000000000     -3.022379000000000      0.298722000000000
C      -2.003189000000000     -2.916974000000000     -1.021042000000000
C      -1.879114000000000     -2.289029000000000      2.648774000000000
C      -1.819275000000000     -0.831094000000000      3.234145000000000
C      -2.843673000000000     -2.537171000000000      1.329283000000000
C      -1.362037000000000      1.290022000000000      2.238344000000000
C      -1.423921000000000      2.216837000000000      1.241824000000000
C      -2.089670000000000      0.125468000000000      2.137727000000000
C      -2.141770000000000      3.112816000000000     -0.842639000000000
C      -2.265838000000000      2.434631000000000     -2.246515000000000
C      -2.248030000000000      2.024982000000000      0.157071000000000
C      -2.128478000000000      0.046275000000000     -2.871847000000000
C      -2.075737000000000     -1.287144000000000     -2.612094000000000
C      -3.036395000000000     -2.082543000000000     -1.746033000000000
C      -3.155036000000000      1.020735000000000     -2.381062000000000
C      -3.639766000000000     -1.312983000000000      0.757421000000000
C      -2.871550000000000     -0.085089000000000      1.041624000000000
C      -2.973431000000000      0.870857000000000      0.055171000000000
C      -3.937231000000000     -1.188602000000000     -0.826593000000000
C      -3.817049000000000      0.430473000000000     -1.083199000000000
O       4.905961000000000     -1.135487000000000      0.783914000000000
H       5.449334000000000     -0.327058000000000      0.895049000000000
O       3.964319000000000     -3.261310000000000     -0.899282000000000
H       4.614544000000000     -2.861783000000000     -0.304020000000000
O       3.652361000000000     -0.485653000000000     -3.679866000000000
H       3.483724000000000     -1.102199000000000     -4.415668000000000
O       4.798433000000000      1.400461000000000      0.995257000000000
H       5.288183000000000      1.722407000000000      0.218517000000000
O       2.170935000000000     -2.464410000000000     -4.271182000000000
H       2.405560000000000     -3.393492000000000     -4.072463000000000
O       2.263631000000000     -4.199159000000000     -2.505429000000000
H       3.059947000000000     -4.467622000000000     -2.017357000000000
O       4.792142000000000      1.158770000000000     -1.496464000000000
H       4.766861000000000      1.086128000000000     -2.462358000000000
O       2.458238000000000     -4.609441000000000      0.673999000000000
H       2.625487000000000     -4.787007000000000      1.614550000000000
O       2.631720000000000     -3.493676000000000      2.861633000000000
H       3.179205000000000     -2.981704000000000      3.487971000000000
O       3.891589000000000     -1.362282000000000      3.064875000000000
H       4.731533000000000     -1.510267000000000      2.590104000000000
O       3.489675000000000      3.057570000000000     -2.399476000000000
H       3.853145000000000      3.767538000000000     -1.845190000000000
O       2.617804000000000      4.444514000000000     -0.389718000000000
H       2.266317000000000      5.060956000000000     -1.071912000000000
O       0.777686000000000      4.784235000000000     -2.042572000000000
H       0.071690000000000      5.427030000000000     -1.856781000000000
O      -0.987903000000000      5.250874000000000     -0.447279000000000
H      -1.779771000000000      5.429137000000000      0.085660000000000
O      -3.178523000000000      4.036268000000000     -0.685051000000000
H      -3.416730000000000      4.330907000000000     -1.583557000000000
O      -2.828286000000000      3.373076000000000     -3.116120000000000
H      -3.441215000000000      2.877135000000000     -3.696126000000000
O      -4.148642000000000      1.252518000000000     -3.332912000000000
H      -4.975141000000000      1.373240000000000     -2.819894000000000
O      -5.116297000000000      0.959898000000000     -1.025664000000000
H      -5.715002000000000      0.214736000000000     -0.824930000000000
O      -5.272452000000000     -1.527199000000000     -1.020662000000000
H      -5.310056000000000     -2.196346000000000     -1.726161000000000
O      -3.893799000000000     -2.890200000000000     -2.535062000000000
H      -3.361467000000000     -3.616076000000000     -2.888719000000000
O      -0.346438000000000     -0.402511000000000      5.173849000000000
H      -1.049475000000000      0.156904000000000      5.546006000000000
O      -2.798291000000000     -0.706812000000000      4.228787000000000
H      -2.766794000000000     -1.534917000000000      4.739706000000000
O      -1.027185000000000      2.028493000000000      4.469871000000000
H      -0.274212000000000      2.382418000000000      4.980760000000000
O      -2.322101000000000     -3.123511000000000      3.680781000000000
H      -2.901305000000000     -3.793204000000000      3.268942000000000
O       1.381175000000000      2.656371000000000      4.119587000000000
H       1.752651000000000      3.515649000000000      3.852331000000000
O      -1.225459000000000      4.501635000000000      1.893841000000000
H      -1.329949000000000      4.212756000000000      2.808886000000000
O      -3.752699000000000     -3.552143000000000      1.654764000000000
H      -4.637514000000000     -3.137682000000000      1.676866000000000
O      -4.898765000000000     -1.289055000000000      1.404244000000000
H      -4.803320000000000     -0.811750000000000      2.239976000000000
O       1.336988000000000      4.345979000000000      2.284557000000000
H       1.790902000000000      4.808049000000000      1.564176000000000
O      -1.142497000000000     -4.462096000000000     -2.669190000000000
H      -0.309517000000000     -4.835797000000000     -2.981495000000000
