124

C       1.232733000000000     -3.000415000000000      1.867313000000000
C      -0.202903000000000     -2.772664000000000      2.496023000000000
C      -0.058676000000000     -1.534154000000000      3.443438000000000
C       1.877140000000000     -1.660416000000000      2.071591000000000
C       1.205808000000000     -0.880871000000000      2.906596000000000
C       3.155329000000000     -1.210476000000000      1.431890000000000
C       3.344317000000000     -1.758345000000000     -0.030660000000000
C       1.301123000000000     -3.403526000000000      0.360421000000000
C       2.083292000000000     -2.407739000000000     -0.498528000000000
C       0.009563000000000     -3.374928000000000     -0.415714000000000
C      -1.221638000000000     -2.510168000000000      1.445495000000000
C      -1.153284000000000     -3.052473000000000      0.116604000000000
C      -2.254929000000000     -1.674116000000000      1.507666000000000
C      -1.302152000000000     -0.532638000000000      3.534146000000000
C      -2.593954000000000     -0.839127000000000      2.672384000000000
C      -0.888402000000000      0.794555000000000      2.975267000000000
C       1.601292000000000      0.515165000000000      3.310098000000000
C       0.389249000000000      1.289864000000000      2.907811000000000
C       3.025027000000000      0.274705000000000      1.238561000000000
C       2.731074000000000      1.156486000000000      2.395085000000000
C       3.723350000000000     -0.498439000000000     -0.891290000000000
C       3.304629000000000      0.664567000000000      0.011045000000000
C       3.103852000000000     -0.400434000000000     -2.349764000000000
C       1.565545000000000     -2.341616000000000     -1.722351000000000
C       0.351323000000000     -3.283578000000000     -1.870619000000000
C       2.138125000000000     -1.563914000000000     -2.861356000000000
C      -0.787140000000000     -2.691205000000000     -2.746606000000000
C      -2.472681000000000     -2.898767000000000     -0.591368000000000
C      -3.268008000000000     -1.908515000000000      0.411316000000000
C      -2.258069000000000     -2.474143000000000     -2.085161000000000
C      -3.878480000000000     -0.599434000000000     -0.169178000000000
C      -3.142357000000000      0.571933000000000      2.201790000000000
C      -1.895268000000000      1.403162000000000      2.247530000000000
C      -3.780789000000000      0.710212000000000      0.755839000000000
C      -1.600408000000000      2.491694000000000      1.463015000000000
C       0.696180000000000      2.352207000000000      2.075674000000000
C       2.171413000000000      2.564857000000000      1.940915000000000
C      -0.302142000000000      2.952307000000000      1.360722000000000
C       3.240731000000000      2.082214000000000     -0.480175000000000
C       2.543366000000000      3.125706000000000      0.500913000000000
C       2.208008000000000      0.801440000000000     -2.407232000000000
C       2.264774000000000      1.919845000000000     -1.606293000000000
C       0.965744000000000     -0.851785000000000     -3.639278000000000
C      -0.407688000000000     -1.289409000000000     -3.188848000000000
C       1.074490000000000      0.573077000000000     -3.160767000000000
C      -2.441337000000000     -0.992118000000000     -2.219060000000000
C      -3.106588000000000     -0.185936000000000     -1.391500000000000
C      -1.421495000000000     -0.422328000000000     -3.046356000000000
C      -3.027451000000000      1.703114000000000     -0.142024000000000
C      -2.487460000000000      3.001940000000000      0.361966000000000
C      -2.820968000000000      1.222684000000000     -1.365799000000000
C      -0.112831000000000      3.960998000000000      0.291423000000000
C       1.299694000000000      3.745251000000000     -0.375289000000000
C       1.177574000000000      2.762797000000000     -1.487193000000000
C      -1.487137000000000      3.788353000000000     -0.602839000000000
C       0.009646000000000      1.438670000000000     -3.070903000000000
C      -1.384120000000000      1.040543000000000     -3.430877000000000
C      -2.267526000000000      1.991477000000000     -2.513256000000000
C       0.042159000000000      2.520415000000000     -2.210587000000000
C      -1.296808000000000      3.166824000000000     -2.040838000000000
O       1.911387000000000     -3.971570000000000      2.621849000000000
H       1.217747000000000     -4.530925000000000      3.021626000000000
O       4.277746000000000     -1.486644000000000      2.234090000000000
H       4.649937000000000     -2.322683000000000      1.902472000000000
O       1.926105000000000      0.579623000000000      4.669951000000000
H       2.851548000000000      0.869339000000000      4.734367000000000
O      -0.582078000000000     -3.914756000000000      3.217713000000000
H      -0.468751000000000     -3.695299000000000      4.159664000000000
O       4.373372000000000     -2.709317000000000     -0.041078000000000
H       5.150589000000000     -2.257971000000000     -0.421816000000000
O       0.184127000000000     -2.048529000000000      4.730891000000000
H       0.334995000000000     -1.294160000000000      5.319933000000000
O      -1.671325000000000     -0.395389000000000      4.877982000000000
H      -2.321194000000000     -1.085623000000000      5.078941000000000
O       5.122830000000000     -0.507784000000000     -0.992577000000000
H       5.347790000000000     -0.013159000000000     -1.801337000000000
O       1.860954000000000     -4.688439000000000      0.212076000000000
H       2.436104000000000     -4.835798000000000      0.983074000000000
O       3.903958000000000      1.337839000000000      3.164433000000000
H       4.451111000000000      0.544823000000000      3.046800000000000
O       4.515411000000000      2.503793000000000     -0.877230000000000
H       4.690500000000000      3.359416000000000     -0.456394000000000
O       4.156722000000000     -0.279417000000000     -3.265705000000000
H       4.226187000000000     -1.144692000000000     -3.715929000000000
O       2.861488000000000     -2.415465000000000     -3.707709000000000
H       2.468355000000000     -2.334847000000000     -4.593950000000000
O      -3.557848000000000     -1.478724000000000      3.480373000000000
H      -4.090341000000000     -2.046593000000000      2.889741000000000
O       3.459964000000000      4.169514000000000      0.687499000000000
H       3.338695000000000      4.460781000000000      1.619107000000000
O       2.597378000000000      3.527642000000000      2.886653000000000
H       3.323228000000000      3.133530000000000      3.397253000000000
O      -5.211117000000000     -0.868963000000000     -0.484805000000000
H      -5.725087000000000     -0.071077000000000     -0.274613000000000
O      -4.305369000000000     -2.625191000000000      1.044649000000000
H      -4.308779000000000     -3.511947000000000      0.629541000000000
O      -3.195637000000000     -3.179595000000000     -2.851859000000000
H      -2.718832000000000     -3.487268000000000     -3.649436000000000
O      -3.134249000000000     -4.133577000000000     -0.571202000000000
H      -3.566824000000000     -4.211242000000000     -1.447855000000000
O       0.746619000000000     -4.516414000000000     -2.423563000000000
H       1.335203000000000     -4.940293000000000     -1.779213000000000
O      -0.962207000000000     -3.487364000000000     -3.892613000000000
H      -0.402625000000000     -4.276156000000000     -3.782966000000000
O      -1.993242000000000      5.073655000000000     -0.812464000000000
H      -2.554789000000000      5.294710000000000     -0.052649000000000
O      -0.146298000000000      5.236442000000000      0.855172000000000
H       0.283581000000000      5.830989000000000      0.215659000000000
O       1.691522000000000      5.001505000000000     -0.870549000000000
H       2.593149000000000      5.173741000000000     -0.542737000000000
O      -1.444126000000000      4.179849000000000     -3.010890000000000
H      -1.607947000000000      5.012356000000000     -2.534918000000000
O      -3.319143000000000      2.519051000000000     -3.265715000000000
H      -3.000288000000000      3.397344000000000     -3.565489000000000
O      -1.711047000000000      1.195281000000000     -4.782002000000000
H      -2.609150000000000      1.574669000000000     -4.800155000000000
O       1.177873000000000     -1.039019000000000     -5.018388000000000
H       0.479352000000000     -0.570879000000000     -5.492356000000000
O      -5.077392000000000      1.245013000000000      0.901171000000000
H      -5.273619000000000      1.243754000000000      1.861173000000000
O      -4.098539000000000      0.994123000000000      3.144449000000000
H      -4.247209000000000      0.243962000000000      3.751238000000000
O      -3.493108000000000      3.892096000000000      0.784700000000000
H      -4.283637000000000      3.376740000000000      0.993852000000000
