124

C       2.034952000000000     -0.061361000000000      2.912687000000000
C       2.739528000000000      1.130332000000000      2.130305000000000
C       3.471387000000000      0.403728000000000      0.935143000000000
C       1.904191000000000     -1.122271000000000      1.853105000000000
C       2.698226000000000     -0.877280000000000      0.821731000000000
C       1.344258000000000     -2.462505000000000      2.194448000000000
C      -0.069083000000000     -2.344633000000000      2.848578000000000
C       0.718359000000000      0.237486000000000      3.680135000000000
C      -0.389299000000000     -0.927768000000000      3.501730000000000
C      -0.075223000000000      1.587304000000000      3.295050000000000
C       1.739755000000000      2.084933000000000      1.600183000000000
C       0.669247000000000      2.675796000000000      2.471927000000000
C       1.741455000000000      2.590103000000000      0.366477000000000
C       3.557678000000000      1.079093000000000     -0.485571000000000
C       2.785793000000000      2.434858000000000     -0.678229000000000
C       2.920518000000000      0.187816000000000     -1.544036000000000
C       3.043506000000000     -1.900288000000000     -0.204236000000000
C       3.187559000000000     -1.284145000000000     -1.644085000000000
C       1.145031000000000     -3.346618000000000      0.914655000000000
C       1.828751000000000     -2.773056000000000     -0.292433000000000
C      -0.990427000000000     -2.695409000000000      1.673984000000000
C      -0.338003000000000     -3.228326000000000      0.657920000000000
C      -2.453867000000000     -2.360103000000000      1.673550000000000
C      -1.400474000000000     -0.271043000000000      2.616078000000000
C      -1.213359000000000      1.084810000000000      2.492978000000000
C      -2.356357000000000     -0.884282000000000      1.851024000000000
C      -1.950884000000000      1.804922000000000      1.596545000000000
C      -0.207197000000000      3.553223000000000      1.414943000000000
C       0.505357000000000      3.281932000000000      0.128627000000000
C      -1.739530000000000      3.233152000000000      1.258699000000000
C       0.001235000000000      3.414585000000000     -1.084245000000000
C       2.186117000000000      2.373634000000000     -2.125440000000000
C       2.190754000000000      0.882802000000000     -2.400887000000000
C       0.786951000000000      3.062864000000000     -2.337178000000000
C       1.518930000000000      0.342433000000000     -3.620335000000000
C       2.143747000000000     -2.075527000000000     -2.535639000000000
C       1.279898000000000     -2.787363000000000     -1.497495000000000
C       1.308604000000000     -1.238565000000000     -3.588252000000000
C      -0.953232000000000     -3.773139000000000     -0.588063000000000
C      -0.036117000000000     -3.440768000000000     -1.841353000000000
C      -3.221192000000000     -2.538337000000000      0.290811000000000
C      -2.371161000000000     -3.142557000000000     -0.908553000000000
C      -3.083673000000000     -0.174265000000000      0.922225000000000
C      -2.885767000000000      1.176703000000000      0.801422000000000
C      -3.890860000000000     -1.056599000000000      0.033416000000000
C      -2.449156000000000      3.359541000000000     -0.196821000000000
C      -1.477758000000000      3.512777000000000     -1.423502000000000
C      -3.471522000000000      2.075906000000000     -0.226179000000000
C      -0.214023000000000      2.088647000000000     -2.912324000000000
C       0.113183000000000      0.905839000000000     -3.501615000000000
C      -1.502409000000000      2.312644000000000     -2.352588000000000
C      -0.164614000000000     -1.372073000000000     -3.269219000000000
C      -0.782486000000000     -2.326447000000000     -2.517345000000000
C      -2.044909000000000     -2.102053000000000     -1.935326000000000
C      -0.815684000000000     -0.140569000000000     -3.419012000000000
C      -3.893412000000000     -0.412987000000000     -1.394040000000000
C      -3.683555000000000      1.235637000000000     -1.531967000000000
C      -2.447937000000000      1.336280000000000     -2.380350000000000
C      -2.725988000000000     -0.946612000000000     -2.162333000000000
C      -2.072596000000000      0.072471000000000     -2.868931000000000
O       2.987525000000000     -0.591559000000000      3.825441000000000
H       2.743896000000000     -0.244899000000000      4.703616000000000
O      -0.223191000000000     -3.340274000000000      3.820992000000000
H       0.664951000000000     -3.657129000000000      4.060209000000000
O       3.635326000000000      1.807758000000000      2.960024000000000
H       4.371377000000000      1.198122000000000      3.133279000000000
O      -0.896662000000000     -1.131674000000000      4.791870000000000
H      -1.442724000000000     -1.930889000000000      4.772836000000000
O       1.083812000000000      0.330311000000000      5.024043000000000
H       0.279383000000000      0.577368000000000      5.509828000000000
O       4.774644000000000      0.057650000000000      1.355845000000000
H       5.376294000000000      0.489643000000000      0.709278000000000
O       2.236553000000000     -3.114846000000000      3.072952000000000
H       2.723931000000000     -2.421238000000000      3.560554000000000
O       4.232164000000000     -2.564223000000000      0.164982000000000
H       4.698425000000000     -2.001268000000000      0.806127000000000
O       4.912407000000000      1.292475000000000     -0.779481000000000
H       5.027624000000000      2.266666000000000     -0.787002000000000
O       3.697607000000000      3.497066000000000     -0.566904000000000
H       3.713515000000000      3.944110000000000     -1.431951000000000
O       3.141871000000000      2.991559000000000     -2.950912000000000
H       2.842324000000000      2.920051000000000     -3.866945000000000
O       4.473656000000000     -1.523544000000000     -2.144464000000000
H       4.949247000000000     -2.026718000000000     -1.451275000000000
O       2.225652000000000      0.748329000000000     -4.753953000000000
H       2.123128000000000      0.035922000000000     -5.409934000000000
O       0.994640000000000      4.202060000000000     -3.133481000000000
H       0.163488000000000      4.700986000000000     -3.138773000000000
O       1.579472000000000     -1.703581000000000     -4.884418000000000
H       2.179322000000000     -2.469400000000000     -4.788417000000000
O       2.848619000000000     -3.067752000000000     -3.252045000000000
H       3.792355000000000     -2.800106000000000     -3.207194000000000
O      -3.147849000000000     -2.954611000000000      2.730174000000000
H      -3.387347000000000     -3.855409000000000      2.475437000000000
O      -1.137628000000000     -5.158391000000000     -0.447683000000000
H      -0.271990000000000     -5.560848000000000     -0.296510000000000
O       1.497058000000000     -4.686612000000000      1.136532000000000
H       2.233099000000000     -4.692871000000000      1.766446000000000
O       0.132550000000000     -4.617033000000000     -2.586332000000000
H       0.850301000000000     -4.480073000000000     -3.216880000000000
O      -4.270372000000000     -3.424704000000000      0.544952000000000
H      -4.360127000000000     -3.972127000000000     -0.266154000000000
O      -3.166181000000000     -4.141840000000000     -1.515329000000000
H      -2.661635000000000     -4.973104000000000     -1.464131000000000
O       1.253474000000000      3.567500000000000      3.398276000000000
H       2.212649000000000      3.445772000000000      3.387747000000000
O      -0.540951000000000      2.154782000000000      4.488088000000000
H      -0.003513000000000      2.953368000000000      4.643052000000000
O      -0.056556000000000      4.904536000000000      1.712045000000000
H      -0.647674000000000      5.096697000000000      2.458116000000000
O      -2.424614000000000      4.060442000000000      2.161426000000000
H      -2.854529000000000      4.758486000000000      1.634120000000000
O      -3.245781000000000      4.508814000000000     -0.170639000000000
H      -4.152997000000000      4.181769000000000      0.043096000000000
O      -1.743889000000000      4.688452000000000     -2.151883000000000
H      -2.414390000000000      5.191176000000000     -1.661795000000000
O      -4.820162000000000      1.748117000000000     -2.171581000000000
H      -5.285933000000000      0.974600000000000     -2.553518000000000
O      -5.099306000000000     -0.722276000000000     -2.031219000000000
H      -5.730260000000000     -0.925915000000000     -1.309209000000000
O      -5.236644000000000     -1.125143000000000      0.434040000000000
H      -5.359308000000000     -1.989607000000000      0.870103000000000
O      -4.724142000000000      2.568603000000000      0.179092000000000
H      -5.316966000000000      2.451900000000000     -0.592523000000000
