136

C      -3.016215000000000      1.192806000000000      1.936102000000000
C      -2.024377000000000      0.406842000000000      2.920769000000000
C      -2.202144000000000     -1.098533000000000      2.606644000000000
C      -3.504837000000000      0.062986000000000      0.929145000000000
C      -2.558475000000000     -1.077691000000000      1.138275000000000
C      -3.843913000000000      0.433559000000000     -0.540998000000000
C      -3.187588000000000      1.723354000000000     -1.161922000000000
C      -2.468500000000000      2.570563000000000      1.338655000000000
C      -2.510328000000000      2.783250000000000     -0.235298000000000
C      -0.975603000000000      2.959014000000000      1.696532000000000
C      -0.590483000000000      0.738843000000000      2.776207000000000
C      -0.163173000000000      1.892834000000000      2.309938000000000
C       0.472016000000000      0.031177000000000      3.578902000000000
C      -0.984994000000000     -2.062034000000000      2.899426000000000
C       0.420125000000000     -1.533372000000000      3.490544000000000
C      -0.589869000000000     -2.691407000000000      1.595586000000000
C      -2.805991000000000     -2.361980000000000      0.430995000000000
C      -1.530441000000000     -3.252418000000000      0.578843000000000
C      -3.451104000000000     -0.727558000000000     -1.587251000000000
C      -2.978642000000000     -2.148771000000000     -1.109134000000000
C      -2.195894000000000      1.191736000000000     -2.148418000000000
C      -2.341157000000000     -0.102405000000000     -2.390135000000000
C      -1.301279000000000      2.101564000000000     -2.950206000000000
C      -1.065558000000000      2.992028000000000     -0.647392000000000
C      -0.265487000000000      3.185838000000000      0.379829000000000
C      -0.676320000000000      3.247124000000000     -2.061975000000000
C       1.160859000000000      3.624501000000000      0.360339000000000
C       1.288136000000000      2.154072000000000      2.582615000000000
C       1.781480000000000      0.746512000000000      3.071580000000000
C       2.029856000000000      2.782248000000000      1.367096000000000
C       2.391786000000000     -0.034942000000000      1.986225000000000
C       1.506294000000000     -2.286457000000000      2.594172000000000
C       0.715418000000000     -2.794912000000000      1.435382000000000
C       2.764873000000000     -1.451983000000000      2.162124000000000
C       1.419853000000000     -3.481533000000000      0.315683000000000
C      -0.837523000000000     -3.111754000000000     -0.748133000000000
C      -1.584494000000000     -2.485949000000000     -1.640959000000000
C       0.501265000000000     -3.741490000000000     -0.943162000000000
C      -1.566611000000000     -0.820633000000000     -3.471086000000000
C      -1.178283000000000     -2.281562000000000     -3.062275000000000
C      -0.128340000000000      1.239359000000000     -3.271103000000000
C      -0.250459000000000     -0.107868000000000     -3.517945000000000
C       0.899076000000000      3.165498000000000     -2.281295000000000
C       1.880533000000000      3.466598000000000     -1.067982000000000
C       1.054028000000000      1.762500000000000     -2.784783000000000
C       2.648689000000000      1.783729000000000      0.456772000000000
C       2.871373000000000      0.500287000000000      0.821803000000000
C       3.070355000000000      2.385651000000000     -0.825062000000000
C       3.408192000000000     -1.822129000000000      0.743011000000000
C       2.426903000000000     -2.472346000000000     -0.166717000000000
C       3.838039000000000     -0.420078000000000      0.142563000000000
C       1.287606000000000     -3.119573000000000     -2.148466000000000
C       0.403174000000000     -2.402378000000000     -3.258936000000000
C       0.820127000000000     -0.957997000000000     -3.323664000000000
C       2.287639000000000     -2.202197000000000     -1.451438000000000
C       2.123651000000000      0.926787000000000     -2.613949000000000
C       3.376252000000000      1.284413000000000     -1.898109000000000
C       3.918328000000000     -0.183769000000000     -1.399712000000000
C       2.014582000000000     -0.420808000000000     -2.899864000000000
C       3.095219000000000     -1.229367000000000     -2.248423000000000
O      -4.136918000000000      1.477303000000000      2.729409000000000
H      -4.271884000000000      2.443197000000000      2.704816000000000
O      -5.224235000000000      0.656878000000000     -0.643563000000000
H      -5.636681000000000      0.242239000000000      0.138263000000000
O      -3.914122000000000     -3.045573000000000      0.966504000000000
H      -4.385906000000000     -3.420393000000000      0.196713000000000
O      -2.348540000000000      0.684456000000000      4.256163000000000
H      -3.311193000000000      0.850277000000000      4.266403000000000
O      -3.891859000000000     -3.119926000000000     -1.547403000000000
H      -4.447136000000000     -2.689838000000000     -2.226514000000000
O      -4.554731000000000     -0.921849000000000     -2.440084000000000
H      -5.243271000000000     -0.292515000000000     -2.139977000000000
O      -3.320179000000000     -1.537433000000000      3.358065000000000
H      -3.118917000000000     -2.446921000000000      3.652399000000000
O      -4.141718000000000      2.377576000000000     -1.967644000000000
H      -4.797411000000000      2.791623000000000     -1.388023000000000
O      -3.167805000000000      4.018098000000000     -0.426709000000000
H      -2.771455000000000      4.456644000000000     -1.195874000000000
O      -3.303190000000000      3.544927000000000      1.904720000000000
H      -2.785354000000000      4.355925000000000      2.021003000000000
O      -1.444608000000000     -3.080400000000000      3.752665000000000
H      -0.956294000000000     -2.960100000000000      4.595925000000000
O       0.524636000000000     -2.004986000000000      4.804043000000000
H       1.219831000000000     -2.687281000000000      4.811054000000000
O       1.989376000000000     -4.672464000000000      0.795888000000000
H       1.978354000000000     -5.305536000000000      0.058245000000000
O       0.345168000000000     -5.121388000000000     -1.142281000000000
H      -0.378434000000000     -5.417684000000000     -0.567934000000000
O       1.969371000000000     -3.396250000000000      3.340848000000000
H       2.165161000000000     -4.109030000000000      2.709704000000000
O      -1.845054000000000     -4.595900000000000      0.833225000000000
H      -2.687204000000000     -4.592016000000000      1.320787000000000
O       2.085954000000000     -4.095588000000000     -2.767770000000000
H       1.673960000000000     -4.294731000000000     -3.630818000000000
O      -1.811645000000000     -3.220697000000000     -3.888807000000000
H      -2.378233000000000     -2.721754000000000     -4.502488000000000
O       0.619152000000000     -3.069052000000000     -4.473138000000000
H      -0.235979000000000     -3.491340000000000     -4.700930000000000
O       3.734090000000000     -1.573258000000000      3.175287000000000
H       4.239579000000000     -2.381650000000000      2.986718000000000
O       4.522591000000000     -2.635546000000000      0.942229000000000
H       5.278731000000000     -2.019464000000000      1.016603000000000
O       3.963251000000000     -1.893571000000000     -3.133666000000000
H       3.607316000000000     -2.784541000000000     -3.284219000000000
O      -2.285738000000000     -0.861384000000000     -4.679566000000000
H      -2.481711000000000      0.046835000000000     -4.942034000000000
O      -1.985508000000000      2.582124000000000     -4.072926000000000
H      -2.797083000000000      3.008906000000000     -3.759200000000000
O      -1.175859000000000      4.500146000000000     -2.437055000000000
H      -0.618337000000000      4.792030000000000     -3.182017000000000
O       1.168526000000000      4.072191000000000     -3.322466000000000
H       1.995657000000000      4.534454000000000     -3.093599000000000
O       2.514714000000000      4.680968000000000     -1.350008000000000
H       2.048056000000000      5.368866000000000     -0.834461000000000
O       1.185398000000000      4.979709000000000      0.730208000000000
H       1.957808000000000      5.087954000000000      1.320280000000000
O       5.106529000000000     -0.149795000000000      0.704486000000000
H       5.707425000000000      0.043603000000000     -0.036826000000000
O       5.269629000000000     -0.267671000000000     -1.744445000000000
H       5.321009000000000     -0.728420000000000     -2.598183000000000
O       3.049509000000000      3.654392000000000      1.846208000000000
H       3.021269000000000      3.611927000000000      2.818427000000000
O       1.396630000000000      3.079122000000000      3.655075000000000
H       1.461930000000000      2.557162000000000      4.471745000000000
O       2.703647000000000      0.947489000000000      4.109638000000000
H       3.172832000000000      0.114074000000000      4.265236000000000
O       4.290632000000000      1.782952000000000     -2.823552000000000
H       4.924227000000000      2.334800000000000     -2.339920000000000
O      -0.997406000000000      4.111000000000000      2.505633000000000
H      -0.183132000000000      4.136351000000000      3.031602000000000
O      -4.751352000000000     -0.434748000000000      1.415579000000000
H      -4.597782000000000     -0.847402000000000      2.287606000000000
O       0.332937000000000      0.442405000000000      4.915390000000000
H      -0.590685000000000      0.315897000000000      5.182396000000000
O       4.287985000000000      3.079537000000000     -0.669205000000000
H       4.241001000000000      3.608808000000000      0.139506000000000
