140

C       3.514774000000000     -0.890216000000000      1.088358000000000
C       3.387967000000000      0.678928000000000      1.221075000000000
C       3.524671000000000      1.238549000000000     -0.217814000000000
C       3.334750000000000     -1.134673000000000     -0.454853000000000
C       2.804584000000000      0.191250000000000     -1.057471000000000
C       2.791222000000000     -2.506864000000000     -0.926107000000000
C       1.816560000000000     -3.301734000000000      0.013734000000000
C       2.654634000000000     -1.742998000000000      2.123334000000000
C       1.773319000000000     -2.936193000000000      1.515222000000000
C       1.618684000000000     -1.010594000000000      3.096592000000000
C       2.104087000000000      1.110818000000000      1.825583000000000
C       1.689654000000000      0.526866000000000      3.134701000000000
C       1.449313000000000      2.222337000000000      1.524750000000000
C       2.779986000000000      2.539360000000000     -0.575906000000000
C       1.896429000000000      3.217610000000000      0.516541000000000
C       1.758469000000000      2.060705000000000     -1.569425000000000
C       2.899560000000000      0.179960000000000     -2.567065000000000
C       2.073562000000000      1.444713000000000     -2.916119000000000
C       1.990693000000000     -2.386222000000000     -2.294915000000000
C       2.124611000000000     -1.066298000000000     -3.161906000000000
C       0.464614000000000     -3.131369000000000     -0.632675000000000
C       0.564341000000000     -2.687827000000000     -1.868847000000000
C      -0.765076000000000     -3.765126000000000     -0.068259000000000
C       0.344531000000000     -2.562285000000000      1.846158000000000
C       0.280152000000000     -1.539318000000000      2.670451000000000
C      -0.845990000000000     -3.387452000000000      1.474784000000000
C      -0.926504000000000     -1.006795000000000      3.350558000000000
C       0.326398000000000      1.281075000000000      3.447083000000000
C       0.438394000000000      2.599442000000000      2.574556000000000
C      -0.856240000000000      0.467655000000000      3.069276000000000
C      -0.866294000000000      3.228888000000000      1.978130000000000
C       0.669823000000000      3.868024000000000     -0.231795000000000
C       0.767874000000000      3.245690000000000     -1.680801000000000
C      -0.743170000000000      3.690117000000000      0.445376000000000
C      -0.544300000000000      2.968756000000000     -2.518408000000000
C       0.731383000000000      0.892544000000000     -3.281602000000000
C       0.740407000000000     -0.490281000000000     -3.351224000000000
C      -0.438223000000000      1.564807000000000     -3.021206000000000
C      -0.554997000000000     -2.607472000000000     -2.850524000000000
C      -0.452369000000000     -1.166449000000000     -3.236127000000000
C      -2.064277000000000     -3.195176000000000     -0.730683000000000
C      -2.013010000000000     -2.771087000000000     -2.246028000000000
C      -2.194748000000000     -2.582459000000000      1.634730000000000
C      -2.300847000000000     -1.480790000000000      2.754095000000000
C      -2.428435000000000     -2.101405000000000      0.232296000000000
C      -1.935029000000000      0.917043000000000      2.464803000000000
C      -2.138148000000000      2.297679000000000      1.958375000000000
C      -3.025152000000000     -0.115386000000000      2.306773000000000
C      -1.646750000000000      2.742882000000000     -0.294584000000000
C      -1.911974000000000      2.932758000000000     -1.740361000000000
C      -2.448225000000000      2.069384000000000      0.505133000000000
C      -1.619403000000000      0.868247000000000     -2.848535000000000
C      -1.624867000000000     -0.489598000000000     -2.969979000000000
C      -2.756850000000000     -1.367305000000000     -2.585142000000000
C      -2.728400000000000      1.719551000000000     -2.342908000000000
C      -3.085875000000000     -1.015685000000000     -0.091135000000000
C      -3.698255000000000     -0.090877000000000      0.899815000000000
C      -3.654684000000000      1.284563000000000      0.135921000000000
C      -3.594332000000000     -0.690361000000000     -1.458144000000000
C      -3.733611000000000      0.920407000000000     -1.414929000000000
O       4.863318000000000     -1.203477000000000      1.346702000000000
H       5.150940000000000     -0.606383000000000      2.062191000000000
O       3.865156000000000     -3.389620000000000     -1.122597000000000
H       4.671453000000000     -2.852341000000000     -1.223324000000000
O       4.184782000000000      0.289388000000000     -3.107189000000000
H       4.206684000000000     -0.331285000000000     -3.861676000000000
O       4.422516000000000      1.172527000000000      2.038611000000000
H       5.110479000000000      1.516941000000000      1.441044000000000
O       2.765924000000000     -1.362387000000000     -4.374682000000000
H       2.766727000000000     -2.334902000000000     -4.460430000000000
O       2.391610000000000     -3.462174000000000     -3.124883000000000
H       3.053240000000000     -3.965197000000000     -2.601565000000000
O       4.910729000000000      1.395152000000000     -0.458912000000000
H       4.994874000000000      2.187388000000000     -1.026867000000000
O       2.092076000000000     -4.673861000000000     -0.148261000000000
H       2.587624000000000     -4.975907000000000      0.628270000000000
O      -0.379237000000000     -3.516700000000000     -3.911242000000000
H       0.520528000000000     -3.871847000000000     -3.863745000000000
O      -0.734848000000000     -5.145576000000000     -0.272339000000000
H       0.096065000000000     -5.482401000000000      0.094837000000000
O       3.690219000000000      3.477983000000000     -1.089884000000000
H       3.721849000000000      4.208082000000000     -0.440999000000000
O       2.125351000000000     -4.107643000000000      2.210987000000000
H       2.039556000000000     -3.933314000000000      3.158035000000000
O       3.565618000000000     -2.317579000000000      3.019273000000000
H       4.313625000000000     -2.670460000000000      2.513062000000000
O       2.665830000000000      4.205764000000000      1.143564000000000
H       2.212927000000000      5.055488000000000      0.958308000000000
O       0.943195000000000      5.237399000000000     -0.287394000000000
H       0.101132000000000      5.691967000000000     -0.061713000000000
O      -1.376640000000000      4.961035000000000      0.393054000000000
H      -1.999294000000000      4.963333000000000     -0.359096000000000
O      -3.088610000000000     -4.155147000000000     -0.587207000000000
H      -3.104746000000000     -4.680591000000000     -1.405183000000000
O      -2.668629000000000     -3.781135000000000     -2.953013000000000
H      -2.157464000000000     -3.947765000000000     -3.762656000000000
O      -2.596852000000000      4.146078000000000     -1.889709000000000
H      -2.510964000000000      4.391554000000000     -2.828204000000000
O      -3.459704000000000      2.243704000000000     -3.440839000000000
H      -3.492778000000000      1.569718000000000     -4.132898000000000
O      -5.038306000000000      1.230205000000000     -1.813653000000000
H      -4.974052000000000      1.856369000000000     -2.559613000000000
O      -4.754626000000000      2.073146000000000      0.513389000000000
H      -5.455141000000000      1.893896000000000     -0.142259000000000
O      -5.049721000000000     -0.466102000000000      1.033170000000000
H      -5.299575000000000     -0.223218000000000      1.946913000000000
O      -4.046287000000000      0.173516000000000      3.229340000000000
H      -4.055622000000000     -0.588901000000000      3.850152000000000
O       0.226655000000000      1.582407000000000      4.801825000000000
H       0.739761000000000      2.396329000000000      4.948218000000000
O       1.074024000000000      3.547419000000000      3.405795000000000
H       0.449542000000000      4.291399000000000      3.502528000000000
O       2.648790000000000      0.849551000000000      4.117789000000000
H       2.950843000000000      1.754523000000000      3.969416000000000
O       1.795487000000000     -1.496601000000000      4.407488000000000
H       2.544951000000000     -1.017132000000000      4.793794000000000
O      -1.134960000000000      4.357483000000000      2.754575000000000
H      -2.095707000000000      4.369426000000000      2.917016000000000
O      -3.176789000000000      2.976214000000000      2.617532000000000
H      -4.021957000000000      2.637237000000000      2.281988000000000
O      -3.068933000000000     -2.011937000000000      3.793585000000000
H      -2.477679000000000     -2.113344000000000      4.562354000000000
O      -0.907080000000000     -1.323102000000000      4.719966000000000
H       0.019572000000000     -1.292629000000000      5.018724000000000
O      -0.678145000000000      3.910205000000000     -3.544713000000000
H       0.105842000000000      4.495071000000000     -3.487506000000000
O       2.688577000000000      2.282662000000000     -3.855348000000000
H       3.615319000000000      1.981462000000000     -3.912276000000000
O      -0.854790000000000     -4.525315000000000      2.278555000000000
H      -1.794772000000000     -4.709983000000000      2.473754000000000
O      -3.565603000000000     -1.541970000000000     -3.711917000000000
H      -4.393651000000000     -1.941352000000000     -3.402082000000000
O       4.631634000000000     -1.152223000000000     -1.035764000000000
H       5.108983000000000     -0.325714000000000     -0.833791000000000
O      -4.879212000000000     -1.241345000000000     -1.596817000000000
H      -5.378665000000000     -1.054395000000000     -0.785872000000000
O      -3.185990000000000     -3.529090000000000      1.962748000000000
H      -3.454450000000000     -3.975986000000000      1.138035000000000
O       1.494311000000000      4.212618000000000     -2.417541000000000
H       2.060818000000000      3.761217000000000     -3.075591000000000
