144

C      -3.275905000000000      0.245251000000000     -2.062332000000000
C      -2.479464000000000      1.619312000000000     -2.447640000000000
C      -2.404500000000000      2.414131000000000     -1.114551000000000
C      -3.686394000000000      0.444275000000000     -0.558180000000000
C      -2.753362000000000      1.469339000000000     -0.026967000000000
C      -3.892779000000000     -0.792957000000000      0.352786000000000
C      -3.145915000000000     -2.121781000000000     -0.045435000000000
C      -2.524833000000000     -1.063394000000000     -2.441724000000000
C      -2.705257000000000     -2.338391000000000     -1.546213000000000
C      -1.039138000000000     -0.964708000000000     -2.610596000000000
C      -1.087432000000000      1.456929000000000     -3.161400000000000
C      -0.427120000000000      0.141354000000000     -2.946565000000000
C       0.096936000000000      2.441788000000000     -2.807054000000000
C      -1.061098000000000      2.879856000000000     -0.693943000000000
C       0.068019000000000      2.819678000000000     -1.375933000000000
C      -0.954980000000000      3.634441000000000      0.593218000000000
C      -2.964170000000000      2.057347000000000      1.313891000000000
C      -1.754525000000000      2.990680000000000      1.771139000000000
C      -3.420099000000000     -0.529095000000000      1.875268000000000
C      -3.033129000000000      0.916414000000000      2.382037000000000
C      -2.068037000000000     -2.241576000000000      0.992456000000000
C      -2.225589000000000     -1.443108000000000      2.030299000000000
C      -1.151393000000000     -3.409682000000000      0.881759000000000
C      -1.295366000000000     -3.123639000000000     -1.693095000000000
C      -0.472034000000000     -2.342470000000000     -2.772972000000000
C      -0.495461000000000     -3.185517000000000     -0.444614000000000
C       1.104012000000000     -2.409679000000000     -2.776759000000000
C       0.958597000000000      0.186065000000000     -3.489388000000000
C       1.432893000000000      1.677218000000000     -3.162187000000000
C       1.811170000000000     -0.992919000000000     -3.000244000000000
C       2.572227000000000      1.757738000000000     -2.071330000000000
C       1.187920000000000      3.567733000000000     -0.699018000000000
C       0.617070000000000      3.732081000000000      0.763499000000000
C       2.588554000000000      2.872608000000000     -0.920029000000000
C       1.122255000000000      2.658220000000000      1.639162000000000
C      -0.950754000000000      2.029868000000000      2.604143000000000
C      -1.615453000000000      0.926752000000000      2.925700000000000
C       0.458923000000000      2.387782000000000      2.956222000000000
C      -1.434469000000000     -1.583212000000000      3.295401000000000
C      -1.002561000000000     -0.150236000000000      3.795718000000000
C       0.018374000000000     -3.447671000000000      1.926399000000000
C      -0.073280000000000     -2.325834000000000      3.011570000000000
C       0.816680000000000     -3.064116000000000     -0.344317000000000
C       1.785549000000000     -2.975184000000000     -1.464841000000000
C       1.336425000000000     -3.423203000000000      1.016150000000000
C       2.460887000000000     -0.717311000000000     -1.686558000000000
C       2.776423000000000      0.488238000000000     -1.283806000000000
C       2.973506000000000     -1.999786000000000     -1.122846000000000
C       3.198980000000000      2.135667000000000      0.349447000000000
C       2.211116000000000      1.944120000000000      1.436716000000000
C       3.728298000000000      0.744797000000000     -0.159165000000000
C       1.269459000000000      1.173770000000000      3.538796000000000
C       0.437131000000000     -0.047858000000000      3.419505000000000
C       0.834592000000000     -1.170792000000000      2.743487000000000
C       2.590371000000000      1.127484000000000      2.634653000000000
C       2.500864000000000     -2.496426000000000      1.452516000000000
C       3.492055000000000     -1.946545000000000      0.352107000000000
C       3.895814000000000     -0.430243000000000      0.879633000000000
C       2.004428000000000     -1.261156000000000      2.083144000000000
C       3.093969000000000     -0.272336000000000      2.232088000000000
O      -4.445109000000000      0.188859000000000     -2.825908000000000
H      -5.103035000000000      0.763240000000000     -2.404309000000000
O      -5.272324000000000     -1.039976000000000      0.381204000000000
H      -5.400324000000000     -1.978534000000000      0.153960000000000
O      -4.164784000000000      2.811957000000000      1.333783000000000
H      -4.262215000000000      3.128101000000000      2.248980000000000
O      -3.296923000000000      2.310420000000000     -3.347303000000000
H      -3.618504000000000      3.104555000000000     -2.879053000000000
O      -3.921607000000000      1.328102000000000      3.378473000000000
H      -4.357523000000000      0.520082000000000      3.711688000000000
O      -4.438422000000000     -0.996725000000000      2.721160000000000
H      -5.221437000000000     -1.139688000000000      2.147428000000000
O      -3.277590000000000      3.540437000000000     -1.201409000000000
H      -3.838271000000000      3.558125000000000     -0.408015000000000
O      -4.072140000000000     -3.158099000000000      0.249097000000000
H      -3.556050000000000     -3.957724000000000      0.462185000000000
O      -3.695895000000000     -3.108180000000000     -2.158940000000000
H      -3.457909000000000     -4.043156000000000     -2.034144000000000
O      -2.947589000000000     -1.403780000000000     -3.754685000000000
H      -3.901627000000000     -1.222515000000000     -3.803983000000000
O      -0.016209000000000      3.628728000000000     -3.532413000000000
H       0.551399000000000      3.532516000000000     -4.317673000000000
O      -1.288876000000000      1.557661000000000     -4.556701000000000
H      -2.146672000000000      2.008240000000000     -4.671902000000000
O       3.480246000000000      3.874007000000000     -1.323465000000000
H       4.153596000000000      3.959445000000000     -0.625432000000000
O       1.232192000000000      4.877345000000000     -1.216612000000000
H       2.085818000000000      4.971640000000000     -1.678802000000000
O      -2.248012000000000      3.995171000000000      2.613595000000000
H      -2.298322000000000      4.811790000000000      2.089636000000000
O      -1.480190000000000      4.936271000000000      0.425675000000000
H      -1.253103000000000      5.243015000000000     -0.461845000000000
O       0.983987000000000      4.957179000000000      1.330630000000000
H       1.061498000000000      5.586723000000000      0.591029000000000
O       4.260788000000000      2.922171000000000      0.836978000000000
H       4.363177000000000      2.726192000000000      1.786408000000000
O      -1.901110000000000     -4.600363000000000      0.925671000000000
H      -1.562367000000000     -5.095273000000000      1.699422000000000
O      -2.155805000000000     -2.275615000000000      4.268564000000000
H      -2.274519000000000     -1.671492000000000      5.020322000000000
O      -0.053880000000000     -4.671770000000000      2.604432000000000
H       0.632276000000000     -5.247592000000000      2.216548000000000
O       0.392132000000000     -2.863898000000000      4.225731000000000
H      -0.369878000000000     -3.295877000000000      4.646292000000000
O       3.626381000000000      1.819288000000000      3.292291000000000
H       4.066667000000000      1.166725000000000      3.863031000000000
O       1.559626000000000      1.377718000000000      4.888437000000000
H       1.696020000000000      2.331980000000000      5.010761000000000
O       0.561062000000000      3.473318000000000      3.836057000000000
H       0.462389000000000      4.291174000000000      3.326786000000000
O      -1.320588000000000     -0.000960000000000      5.151321000000000
H      -0.660664000000000      0.579014000000000      5.553702000000000
O       3.923414000000000     -0.680783000000000      3.303646000000000
H       4.093228000000000     -1.635124000000000      3.206307000000000
O       4.990167000000000      0.967306000000000     -0.756902000000000
H       5.655297000000000      0.690730000000000     -0.096215000000000
O       5.256068000000000     -0.456978000000000      1.200719000000000
H       5.530756000000000     -1.399201000000000      1.147408000000000
O       4.094452000000000     -2.392397000000000     -1.894963000000000
H       3.927049000000000     -2.143502000000000     -2.822174000000000
O       4.654550000000000     -2.713444000000000      0.438939000000000
H       4.932949000000000     -2.922725000000000     -0.471315000000000
O       1.815788000000000     -4.752050000000000      0.993483000000000
H       2.248798000000000     -4.905025000000000      0.137223000000000
O       0.895404000000000      0.020947000000000     -4.888545000000000
H       0.227800000000000      0.643027000000000     -5.225375000000000
O       2.865605000000000     -1.180352000000000     -3.922634000000000
H       2.514694000000000     -0.940948000000000     -4.797021000000000
O       1.522239000000000     -3.264611000000000     -3.803183000000000
H       0.844808000000000     -3.234676000000000     -4.499009000000000
O      -0.857174000000000     -2.861193000000000     -4.036981000000000
H      -1.704704000000000     -2.428592000000000     -4.277941000000000
O      -4.946866000000000      1.124607000000000     -0.650006000000000
H      -5.192333000000000      1.453138000000000      0.227640000000000
O      -1.550273000000000     -4.433367000000000     -2.118282000000000
H      -1.424634000000000     -4.435530000000000     -3.086671000000000
O       2.283053000000000     -4.275084000000000     -1.667123000000000
H       2.363678000000000     -4.400186000000000     -2.629220000000000
O       1.888074000000000      2.249768000000000     -4.352488000000000
H       2.859779000000000      2.242586000000000     -4.323809000000000
O       3.739599000000000      1.932297000000000     -2.845779000000000
H       4.512569000000000      1.772754000000000     -2.276587000000000
O       3.303417000000000     -3.191943000000000      2.400804000000000
H       2.710818000000000     -3.583990000000000      3.057592000000000
