144

C      -3.606203000000000      0.939636000000000     -1.367349000000000
C      -3.007177000000000      2.401152000000000     -0.929522000000000
C      -2.790693000000000      2.272726000000000      0.610444000000000
C      -3.788744000000000      0.162504000000000     -0.008955000000000
C      -2.864180000000000      0.830918000000000      0.944955000000000
C      -3.692200000000000     -1.391789000000000     -0.006809000000000
C      -2.896162000000000     -2.111155000000000     -1.164955000000000
C      -2.794752000000000      0.208050000000000     -2.463516000000000
C      -2.708505000000000     -1.372221000000000     -2.509906000000000
C      -1.371308000000000      0.635997000000000     -2.535436000000000
C      -1.757058000000000      2.958995000000000     -1.723316000000000
C      -0.945961000000000      1.904969000000000     -2.367389000000000
C      -0.604876000000000      3.738653000000000     -0.945021000000000
C      -1.465079000000000      2.686423000000000      1.126304000000000
C      -0.485401000000000      3.278099000000000      0.469842000000000
C      -1.206541000000000      2.523939000000000      2.593616000000000
C      -2.898998000000000      0.492043000000000      2.388476000000000
C      -1.699593000000000      1.168238000000000      3.175698000000000
C      -2.987906000000000     -1.968890000000000      1.315082000000000
C      -2.673905000000000     -1.047891000000000      2.553867000000000
C      -1.615731000000000     -2.570332000000000     -0.519990000000000
C      -1.686753000000000     -2.551999000000000      0.800078000000000
C      -0.681484000000000     -3.419640000000000     -1.318568000000000
C      -1.272905000000000     -1.635544000000000     -3.218631000000000
C      -0.604014000000000     -0.306135000000000     -3.142144000000000
C      -0.262473000000000     -2.700832000000000     -2.634738000000000
C       0.777439000000000     -0.075508000000000     -3.612993000000000
C       0.348756000000000      2.431836000000000     -2.883822000000000
C       0.752210000000000      3.387081000000000     -1.705979000000000
C       1.398365000000000      1.360795000000000     -3.402806000000000
C       1.693255000000000      2.711618000000000     -0.761724000000000
C       0.693650000000000      3.596220000000000      1.373363000000000
C       0.356278000000000      2.784679000000000      2.683147000000000
C       2.028607000000000      3.258669000000000      0.612254000000000
C       1.110936000000000      1.506172000000000      2.733441000000000
C      -0.686259000000000      0.064278000000000      3.159654000000000
C      -1.186956000000000     -1.118177000000000      2.859735000000000
C       0.676993000000000      0.384042000000000      3.638916000000000
C      -0.729062000000000     -3.278599000000000      1.693664000000000
C      -0.392648000000000     -2.376170000000000      2.954940000000000
C       0.663283000000000     -3.794670000000000     -0.561935000000000
C       0.639576000000000     -3.540572000000000      0.985263000000000
C       1.058639000000000     -2.093735000000000     -2.245417000000000
C       1.574903000000000     -0.970300000000000     -2.695353000000000
C       1.816287000000000     -3.033756000000000     -1.371340000000000
C       2.644290000000000      1.141651000000000     -2.452616000000000
C       2.450311000000000      1.673773000000000     -1.087641000000000
C       2.927516000000000     -0.402189000000000     -2.433347000000000
C       2.961106000000000      2.145142000000000      1.196518000000000
C       2.206729000000000      1.213251000000000      2.060684000000000
C       3.528885000000000      1.410855000000000     -0.074514000000000
C       1.742093000000000     -0.748107000000000      3.438658000000000
C       1.163413000000000     -2.103798000000000      2.889647000000000
C       1.447465000000000     -2.365310000000000      1.441665000000000
C       2.855804000000000     -0.060335000000000      2.512948000000000
C       2.910782000000000     -2.305033000000000     -0.559512000000000
C       3.667741000000000     -1.033214000000000     -1.184745000000000
C       3.983284000000000     -0.079812000000000      0.089515000000000
C       2.407013000000000     -1.805420000000000      0.746297000000000
C       3.407816000000000     -0.877193000000000      1.330251000000000
O      -4.880362000000000      1.148270000000000     -1.911903000000000
H      -5.097507000000000      2.090149000000000     -1.742083000000000
O      -5.016171000000000     -1.867334000000000     -0.034135000000000
H      -5.057891000000000     -2.527950000000000     -0.753857000000000
O      -4.117503000000000      0.885490000000000      2.972312000000000
H      -4.283687000000000      0.253510000000000      3.694343000000000
O      -4.033301000000000      3.333028000000000     -1.139133000000000
H      -4.356855000000000      3.565324000000000     -0.237480000000000
O      -3.420247000000000     -1.457479000000000      3.662447000000000
H      -3.724283000000000     -2.365289000000000      3.470618000000000
O      -3.770759000000000     -3.036711000000000      1.789980000000000
H      -4.628758000000000     -2.976597000000000      1.324357000000000
O      -3.798385000000000      3.033944000000000      1.278108000000000
H      -4.329486000000000      2.422390000000000      1.817788000000000
O      -3.660435000000000     -3.278524000000000     -1.418635000000000
H      -3.076419000000000     -3.957908000000000     -1.794870000000000
O      -3.703321000000000     -1.853819000000000     -3.353693000000000
H      -3.763136000000000     -1.212860000000000     -4.086698000000000
O      -3.316596000000000      0.596564000000000     -3.720090000000000
H      -4.213998000000000      0.943623000000000     -3.536444000000000
O      -0.845406000000000      5.110605000000000     -0.986718000000000
H      -0.054005000000000      5.513565000000000     -1.397920000000000
O      -2.225807000000000      3.821364000000000     -2.739787000000000
H      -2.724487000000000      4.533889000000000     -2.311542000000000
O       2.758715000000000      4.450843000000000      0.472008000000000
H       3.633651000000000      4.302133000000000      0.864228000000000
O       0.675358000000000      4.953125000000000      1.728861000000000
H       1.425598000000000      5.367002000000000      1.258071000000000
O      -2.044940000000000      1.355937000000000      4.527491000000000
H      -2.509844000000000      2.206670000000000      4.583210000000000
O      -1.893382000000000      3.525233000000000      3.312254000000000
H      -1.815211000000000      4.357732000000000      2.831272000000000
O       0.681014000000000      3.513491000000000      3.826458000000000
H       0.665240000000000      4.453133000000000      3.572507000000000
O       3.999829000000000      2.754167000000000      1.922099000000000
H       4.325584000000000      2.112272000000000      2.573430000000000
O      -1.382099000000000     -4.597366000000000     -1.642289000000000
H      -0.818265000000000     -5.345918000000000     -1.363316000000000
O      -1.273821000000000     -4.505091000000000      2.090440000000000
H      -1.575143000000000     -4.392028000000000      3.010764000000000
O       0.841519000000000     -5.174791000000000     -0.723808000000000
H       1.543564000000000     -5.289762000000000     -1.396290000000000
O       1.226312000000000     -4.665879000000000      1.611182000000000
H       0.538567000000000     -5.353386000000000      1.639672000000000
O       3.964631000000000      0.283331000000000      3.321896000000000
H       3.767865000000000     -0.121212000000000      4.198172000000000
O       2.348340000000000     -1.008587000000000      4.670245000000000
H       1.825803000000000     -0.534050000000000      5.345892000000000
O       0.647975000000000      0.737824000000000      4.999239000000000
H      -0.210375000000000      1.162459000000000      5.178995000000000
O      -0.718431000000000     -3.064976000000000      4.126834000000000
H       0.135372000000000     -3.332967000000000      4.526167000000000
O       4.441626000000000     -1.712234000000000      1.812921000000000
H       4.951953000000000     -1.178494000000000      2.447246000000000
O       4.637649000000000      2.164475000000000     -0.533582000000000
H       5.427406000000000      1.785561000000000     -0.104255000000000
O       5.375720000000000     -0.019169000000000      0.271546000000000
H       5.768346000000000     -0.660617000000000     -0.353098000000000
O       3.752860000000000      1.777967000000000     -3.039079000000000
H       4.284630000000000      2.188722000000000     -2.332592000000000
O       1.915887000000000      1.819020000000000     -4.606647000000000
H       1.515348000000000      1.299973000000000     -5.322771000000000
O       1.323965000000000      4.559620000000000     -2.203169000000000
H       1.260376000000000      4.496255000000000     -3.178739000000000
O       0.910943000000000     -0.437119000000000     -4.967318000000000
H       0.170046000000000     -1.025339000000000     -5.193503000000000
O       4.913904000000000     -1.489162000000000     -1.627564000000000
H       4.893699000000000     -1.429078000000000     -2.608114000000000
O       2.444495000000000     -3.991717000000000     -2.208353000000000
H       3.340415000000000     -4.121582000000000     -1.845906000000000
O      -1.494854000000000     -1.927457000000000     -4.575997000000000
H      -1.736758000000000     -2.861227000000000     -4.653587000000000
O      -5.073689000000000      0.531542000000000      0.470035000000000
H      -5.692317000000000     -0.181645000000000      0.242599000000000
O       1.777576000000000     -3.105897000000000      3.670034000000000
H       1.872461000000000     -3.900902000000000      3.109162000000000
O       3.878305000000000     -3.303256000000000     -0.309116000000000
H       4.431072000000000     -3.012813000000000      0.435899000000000
O      -0.053140000000000     -3.665513000000000     -3.640661000000000
H       0.840999000000000     -4.022051000000000     -3.549768000000000
O       3.709756000000000     -0.679424000000000     -3.577625000000000
H       3.942370000000000      0.188433000000000     -3.968751000000000
O       0.089074000000000      3.253788000000000     -4.004190000000000
H      -0.813741000000000      3.611442000000000     -3.909589000000000
