148

C      -2.163255000000000      3.090332000000000      0.724967000000000
C      -3.104780000000000      2.075104000000000     -0.035014000000000
C      -2.673803000000000      2.132622000000000     -1.529137000000000
C      -1.006230000000000      3.334354000000000     -0.330026000000000
C      -1.149431000000000      2.268148000000000     -1.443786000000000
C       0.370953000000000      3.796683000000000      0.198056000000000
C       0.818654000000000      3.243466000000000      1.570519000000000
C      -1.795668000000000      2.695189000000000      2.214802000000000
C      -0.254114000000000      2.721213000000000      2.579483000000000
C      -2.264607000000000      1.257916000000000      2.789624000000000
C      -3.014567000000000      0.689089000000000      0.483057000000000
C      -3.247072000000000      0.446754000000000      1.934685000000000
C      -3.106985000000000     -0.411405000000000     -0.240863000000000
C      -2.786546000000000      0.857981000000000     -2.387553000000000
C      -3.314144000000000     -0.449064000000000     -1.708921000000000
C      -1.317012000000000      0.547125000000000     -2.615918000000000
C      -0.298671000000000      2.675959000000000     -2.637169000000000
C      -0.402987000000000      1.379725000000000     -3.490164000000000
C       1.579990000000000      3.490508000000000     -0.819548000000000
C       1.203749000000000      2.787725000000000     -2.177767000000000
C       1.845465000000000      2.214192000000000      1.220981000000000
C       2.652617000000000      2.686892000000000      0.069426000000000
C       2.194127000000000      1.207732000000000      1.983912000000000
C       0.066864000000000      1.298068000000000      2.946737000000000
C      -0.986609000000000      0.520930000000000      3.021375000000000
C       1.460298000000000      0.913841000000000      3.257676000000000
C      -1.001833000000000     -0.813109000000000      3.652883000000000
C      -3.204692000000000     -1.138990000000000      2.104912000000000
C      -3.415621000000000     -1.623872000000000      0.582895000000000
C      -1.961751000000000     -1.761749000000000      2.844243000000000
C      -2.603355000000000     -2.843067000000000      0.084683000000000
C      -2.559829000000000     -1.648685000000000     -2.406738000000000
C      -1.386571000000000     -0.892024000000000     -3.153510000000000
C      -2.245789000000000     -2.919894000000000     -1.474532000000000
C      -0.083322000000000     -1.668890000000000     -3.282322000000000
C       1.039300000000000      0.738210000000000     -3.498107000000000
C       1.638082000000000      1.348102000000000     -2.262787000000000
C       1.200522000000000     -0.815096000000000     -3.603087000000000
C       3.428903000000000      1.512145000000000     -0.554990000000000
C       2.588712000000000      0.793240000000000     -1.548261000000000
C       3.385516000000000      0.332825000000000      1.849130000000000
C       4.000609000000000      0.340303000000000      0.395476000000000
C       1.736078000000000     -0.597196000000000      3.558537000000000
C       0.423800000000000     -1.530355000000000      3.693292000000000
C       2.832108000000000     -1.002709000000000      2.457843000000000
C      -1.002260000000000     -2.424708000000000      1.926453000000000
C      -1.259312000000000     -2.910906000000000      0.736353000000000
C       0.303864000000000     -2.680555000000000      2.627989000000000
C      -0.726164000000000     -3.409311000000000     -1.506482000000000
C       0.221821000000000     -2.391358000000000     -2.017084000000000
C      -0.343086000000000     -3.797072000000000     -0.055526000000000
C       2.295847000000000     -1.459088000000000     -2.615014000000000
C       3.240084000000000     -0.497011000000000     -1.886746000000000
C       3.868510000000000     -0.997681000000000     -0.519479000000000
C       1.484697000000000     -2.267112000000000     -1.655733000000000
C       2.298311000000000     -1.847568000000000      1.374289000000000
C       1.287241000000000     -2.679985000000000      1.522802000000000
C       1.165402000000000     -3.664890000000000      0.386528000000000
C       3.167315000000000     -2.201518000000000      0.207371000000000
C       2.186441000000000     -3.088508000000000     -0.646916000000000
O      -2.882591000000000      4.299977000000000      0.759093000000000
H      -2.985690000000000      4.549346000000000      1.696480000000000
O       0.305846000000000      5.194666000000000      0.394632000000000
H      -0.416134000000000      5.517528000000000     -0.181693000000000
O      -0.715721000000000      3.797221000000000     -3.343748000000000
H      -0.806373000000000      3.516584000000000     -4.271749000000000
O      -4.447442000000000      2.461077000000000      0.118063000000000
H      -4.457020000000000      3.433557000000000      0.035790000000000
O       1.881219000000000      3.458966000000000     -3.221347000000000
H       2.204620000000000      4.301336000000000     -2.851266000000000
O       2.163227000000000      4.714862000000000     -1.157890000000000
H       1.717564000000000      5.400707000000000     -0.619822000000000
O      -3.368237000000000      3.198253000000000     -2.127189000000000
H      -3.508179000000000      2.945137000000000     -3.059573000000000
O       1.584076000000000      4.247323000000000      2.217137000000000
H       1.028058000000000      5.035415000000000      2.312379000000000
O      -0.151274000000000      3.488257000000000      3.763638000000000
H       0.661914000000000      3.198669000000000      4.215278000000000
O      -2.453739000000000      3.647215000000000      3.010030000000000
H      -1.929230000000000      3.746455000000000      3.824073000000000
O      -3.521310000000000      1.124631000000000     -3.549173000000000
H      -4.406511000000000      0.743702000000000     -3.420156000000000
O      -4.695889000000000     -0.582563000000000     -1.950253000000000
H      -4.741356000000000     -1.217540000000000     -2.708703000000000
O      -3.438760000000000     -2.098307000000000     -3.406362000000000
H      -3.604539000000000     -3.050167000000000     -3.209700000000000
O      -3.001817000000000     -3.982308000000000     -1.993865000000000
H      -2.355770000000000     -4.562805000000000     -2.459367000000000
O      -0.627078000000000     -4.542342000000000     -2.337029000000000
H      -0.518021000000000     -5.307466000000000     -1.738122000000000
O       2.850354000000000     -4.155231000000000     -1.265827000000000
H       3.187388000000000     -3.833805000000000     -2.122278000000000
O       3.869976000000000     -1.733164000000000      3.059279000000000
H       3.930184000000000     -1.398567000000000      3.975284000000000
O       0.291599000000000     -3.942072000000000      3.228289000000000
H      -0.460004000000000     -3.967670000000000      3.840015000000000
O      -0.747292000000000     -5.141939000000000      0.116464000000000
H      -0.082044000000000     -5.540980000000000      0.713810000000000
O       1.603628000000000     -4.930437000000000      0.807537000000000
H       2.380932000000000     -5.157874000000000      0.270438000000000
O       2.418283000000000     -0.648126000000000      4.778924000000000
H       1.962575000000000     -1.335731000000000      5.312483000000000
O       0.522838000000000     -2.153065000000000      4.947967000000000
H      -0.228239000000000     -1.836172000000000      5.483564000000000
O       4.188708000000000     -3.064976000000000      0.684272000000000
H       4.327485000000000     -2.873817000000000      1.629277000000000
O       5.170256000000000     -1.412479000000000     -0.835841000000000
H       5.306906000000000     -2.268052000000000     -0.374360000000000
O      -4.307630000000000     -1.522535000000000      2.863433000000000
H      -5.030688000000000     -1.707866000000000      2.236020000000000
O      -4.792959000000000     -1.898927000000000      0.470602000000000
H      -5.106730000000000     -1.573504000000000     -0.390409000000000
O       4.324889000000000      0.836219000000000      2.778324000000000
H       5.158504000000000      0.962105000000000      2.292050000000000
O       5.366074000000000      0.584833000000000      0.573650000000000
H       5.839327000000000     -0.025179000000000     -0.031162000000000
O      -0.837740000000000      1.692993000000000     -4.775594000000000
H      -1.421408000000000      0.970436000000000     -5.067421000000000
O      -0.300486000000000     -2.621865000000000     -4.302253000000000
H       0.533266000000000     -2.712259000000000     -4.790642000000000
O       1.571939000000000     -1.146414000000000     -4.908155000000000
H       1.925911000000000     -0.337347000000000     -5.317063000000000
O      -4.554345000000000      0.861717000000000      2.278867000000000
H      -4.863059000000000      1.486573000000000      1.596120000000000
O      -2.858624000000000      1.456559000000000      4.052232000000000
H      -3.824827000000000      1.447104000000000      3.897630000000000
O       3.073730000000000     -2.383502000000000     -3.341748000000000
H       3.815576000000000     -1.879900000000000     -3.717104000000000
O       4.527451000000000      2.027177000000000     -1.274897000000000
H       4.857616000000000      2.785884000000000     -0.767580000000000
O      -1.442539000000000     -0.677370000000000      4.983137000000000
H      -2.099300000000000      0.043160000000000      5.006226000000000
O      -1.388761000000000      4.482401000000000     -1.065731000000000
H      -2.238025000000000      4.339223000000000     -1.530783000000000
O      -2.381931000000000     -2.773775000000000      3.730629000000000
H      -3.349403000000000     -2.681853000000000      3.813862000000000
O       3.637195000000000      3.587798000000000      0.518789000000000
H       3.237803000000000      4.145869000000000      1.206551000000000
O      -3.349839000000000     -3.967158000000000      0.454728000000000
H      -2.795654000000000     -4.755028000000000      0.349643000000000
O       1.921769000000000      1.741271000000000      4.299880000000000
H       2.862483000000000      1.545195000000000      4.426135000000000
O       1.734189000000000      1.246337000000000     -4.617323000000000
H       1.882864000000000      2.197591000000000     -4.469324000000000
O       4.278373000000000     -0.236000000000000     -2.806014000000000
H       4.745784000000000      0.563638000000000     -2.513771000000000
O      -1.842734000000000     -0.678284000000000     -4.476812000000000
H      -1.588498000000000     -1.484919000000000     -4.968198000000000
