120

C      -2.923912000000000     -2.114625000000000     -0.285650000000000
C      -1.800942000000000     -3.001645000000000     -0.983108000000000
C      -1.545547000000000     -2.309070000000000     -2.361751000000000
C      -2.793379000000000     -0.806578000000000     -1.007097000000000
C      -2.115665000000000     -0.918578000000000     -2.134487000000000
C      -3.685373000000000      0.329817000000000     -0.676495000000000
C      -3.704321000000000      0.619750000000000      0.885722000000000
C      -2.876078000000000     -1.968721000000000      1.260978000000000
C      -3.264780000000000     -0.537397000000000      1.865905000000000
C      -1.503925000000000     -2.201815000000000      1.829014000000000
C      -0.539127000000000     -3.062763000000000     -0.194656000000000
C      -0.533230000000000     -2.885590000000000      1.222037000000000
C       0.722049000000000     -3.057976000000000     -0.646645000000000
C      -0.051183000000000     -2.282706000000000     -2.920337000000000
C       1.128088000000000     -2.942281000000000     -2.065757000000000
C       0.382988000000000     -0.853477000000000     -3.007666000000000
C      -1.944712000000000      0.155679000000000     -3.160729000000000
C      -0.446622000000000      0.232195000000000     -3.198629000000000
C      -3.216124000000000      1.679151000000000     -1.343133000000000
C      -2.422641000000000      1.611289000000000     -2.715876000000000
C      -2.718334000000000      1.748442000000000      0.998685000000000
C      -2.424695000000000      2.305914000000000     -0.239092000000000
C      -1.965639000000000      2.069184000000000      2.100421000000000
C      -2.027418000000000     -0.198544000000000      2.709271000000000
C      -1.194674000000000     -1.236846000000000      2.835978000000000
C      -1.819997000000000      1.154669000000000      3.299228000000000
C       0.033337000000000     -1.317522000000000      3.668167000000000
C       0.824274000000000     -3.163692000000000      1.804861000000000
C       1.732552000000000     -3.268609000000000      0.458543000000000
C       1.215353000000000     -2.124384000000000      2.916277000000000
C       2.950937000000000     -2.301307000000000      0.366531000000000
C       2.378879000000000     -1.954536000000000     -2.251696000000000
C       1.698815000000000     -0.671530000000000     -2.610652000000000
C       3.401114000000000     -1.759298000000000     -1.064875000000000
C       2.180523000000000      0.594478000000000     -2.408873000000000
C       0.007106000000000      1.501258000000000     -2.931579000000000
C      -1.076667000000000      2.527381000000000     -2.810508000000000
C       1.314443000000000      1.673494000000000     -2.540371000000000
C      -1.384430000000000      3.185203000000000     -0.365968000000000
C      -0.706859000000000      3.535105000000000     -1.651298000000000
C      -0.867584000000000      2.924293000000000      1.951491000000000
C      -0.586245000000000      3.502999000000000      0.727201000000000
C      -0.338729000000000      1.429226000000000      3.799564000000000
C       0.629462000000000      0.145666000000000      3.926796000000000
C       0.188761000000000      2.478162000000000      2.805745000000000
C       1.971105000000000     -1.005065000000000      2.308567000000000
C       2.700885000000000     -1.072001000000000      1.153204000000000
C       1.699268000000000      0.214341000000000      2.884011000000000
C       3.852490000000000     -0.200802000000000     -0.744759000000000
C       3.453717000000000      0.962409000000000     -1.713680000000000
C       3.209757000000000      0.068585000000000      0.567158000000000
C       1.700190000000000      2.706744000000000     -1.627223000000000
C       0.743264000000000      3.469875000000000     -1.115790000000000
C       0.763254000000000      4.043218000000000      0.282548000000000
C       3.084641000000000      2.448669000000000     -1.088881000000000
C       1.438019000000000      2.567722000000000      2.294836000000000
C       2.187828000000000      1.358120000000000      2.286555000000000
C       2.955777000000000      1.292502000000000      1.124563000000000
C       1.937459000000000      3.508896000000000      1.191720000000000
C       3.112745000000000      2.628886000000000      0.470078000000000
O      -4.183589000000000     -2.677062000000000     -0.618284000000000
H      -3.975702000000000     -3.561044000000000     -0.992197000000000
O      -4.981288000000000      0.051019000000000     -1.147385000000000
H      -5.161159000000000     -0.891707000000000     -1.020662000000000
O      -2.545186000000000     -0.251734000000000     -4.358429000000000
H      -3.088456000000000      0.487920000000000     -4.676836000000000
O      -2.318475000000000     -4.294929000000000     -1.164145000000000
H      -2.330545000000000     -4.464692000000000     -2.122422000000000
O      -3.290638000000000      2.061663000000000     -3.720498000000000
H      -4.061904000000000      2.449413000000000     -3.245282000000000
O      -4.367919000000000      2.470157000000000     -1.580329000000000
H      -5.122176000000000      2.018704000000000     -1.169850000000000
O      -2.359190000000000     -2.987418000000000     -3.286978000000000
H      -2.188887000000000     -2.598080000000000     -4.158935000000000
O      -4.996851000000000      1.070997000000000      1.191015000000000
H      -5.317814000000000      0.550318000000000      1.947046000000000
O      -4.329410000000000     -0.711397000000000      2.781976000000000
H      -4.427430000000000     -1.681338000000000      2.890049000000000
O      -3.735818000000000     -2.924309000000000      1.835881000000000
H      -4.361369000000000     -3.192128000000000      1.134499000000000
O      -0.059242000000000     -2.875346000000000     -4.186432000000000
H       0.312588000000000     -3.770813000000000     -4.075433000000000
O       1.439299000000000     -4.191205000000000     -2.602843000000000
H       2.234504000000000     -4.043737000000000     -3.159376000000000
O       3.070860000000000     -2.444883000000000     -3.375300000000000
H       4.001081000000000     -2.564630000000000     -3.106343000000000
O       4.551697000000000     -2.447719000000000     -1.449497000000000
H       5.291874000000000     -2.042976000000000     -0.957484000000000
O       5.247116000000000     -0.212512000000000     -0.608186000000000
H       5.595374000000000      0.232235000000000     -1.406761000000000
O       4.522261000000000      1.126303000000000     -2.606974000000000
H       4.613168000000000      2.090746000000000     -2.749424000000000
O       3.969866000000000      3.367788000000000     -1.663920000000000
H       4.597651000000000      3.610858000000000     -0.950805000000000
O       4.350923000000000      3.214743000000000      0.782123000000000
H       4.161525000000000      3.926870000000000      1.426482000000000
O       2.566925000000000      4.599247000000000      1.810274000000000
H       2.183538000000000      5.411675000000000      1.437628000000000
O       0.822802000000000      5.453215000000000      0.280596000000000
H       0.181289000000000      5.757438000000000     -0.379689000000000
O      -0.285437000000000     -1.930559000000000      4.872712000000000
H       0.401892000000000     -1.648240000000000      5.503890000000000
O       1.178262000000000      0.127604000000000      5.214334000000000
H       0.846059000000000      0.923764000000000      5.673619000000000
O       2.019471000000000     -2.756742000000000      3.870689000000000
H       1.552426000000000     -3.568444000000000      4.127778000000000
O      -0.391741000000000      2.026524000000000      5.070251000000000
H      -1.317534000000000      1.986794000000000      5.367596000000000
O       0.804409000000000     -4.419745000000000      2.429972000000000
H       1.123590000000000     -5.065357000000000      1.772856000000000
O      -0.999273000000000      4.855896000000000     -2.031452000000000
H      -1.008714000000000      4.856972000000000     -3.007093000000000
O      -1.151131000000000      3.297773000000000     -3.985948000000000
H      -2.017866000000000      3.107926000000000     -4.394046000000000
O      -2.713850000000000      1.413416000000000      4.360978000000000
H      -3.524386000000000      0.912180000000000      4.199510000000000
O       2.201806000000000     -4.587294000000000      0.352092000000000
H       3.172577000000000     -4.556505000000000      0.457660000000000
O       4.073794000000000     -2.985119000000000      0.907714000000000
H       4.029706000000000     -2.916869000000000      1.871607000000000
