124

C      -3.673925000000000     -0.632767000000000     -0.697034000000000
C      -3.749394000000000     -0.593603000000000      0.893011000000000
C      -3.025496000000000     -1.921671000000000      1.346992000000000
C      -2.571045000000000     -1.614572000000000     -0.967065000000000
C      -2.273908000000000     -2.347816000000000      0.088865000000000
C      -2.195010000000000     -1.976575000000000     -2.356426000000000
C      -1.947792000000000     -0.671762000000000     -3.225847000000000
C      -3.491132000000000      0.729056000000000     -1.415922000000000
C      -2.623615000000000      0.692191000000000     -2.759192000000000
C      -2.817402000000000      1.801482000000000     -0.598681000000000
C      -3.087451000000000      0.613262000000000      1.468724000000000
C      -3.200290000000000      1.988469000000000      0.817351000000000
C      -2.262101000000000      0.635924000000000      2.526496000000000
C      -2.071336000000000     -1.873494000000000      2.622656000000000
C      -1.881151000000000     -0.503430000000000      3.406856000000000
C      -0.677172000000000     -2.149379000000000      2.160556000000000
C      -1.285964000000000     -3.483695000000000      0.104577000000000
C      -0.313781000000000     -2.908118000000000      1.080130000000000
C      -0.835136000000000     -2.782167000000000     -2.430075000000000
C      -0.422753000000000     -3.696947000000000     -1.220382000000000
C      -0.456218000000000     -0.549676000000000     -3.134567000000000
C       0.152753000000000     -1.682337000000000     -2.642480000000000
C       0.263726000000000      0.620819000000000     -3.227204000000000
C      -1.611462000000000      1.814933000000000     -2.499131000000000
C      -1.948689000000000      2.528614000000000     -1.309547000000000
C      -0.351399000000000      1.879023000000000     -2.963389000000000
C      -1.207176000000000      3.731177000000000     -0.849513000000000
C      -2.180874000000000      2.881580000000000      1.608033000000000
C      -1.531686000000000      1.866863000000000      2.547123000000000
C      -1.124819000000000      3.742042000000000      0.745947000000000
C      -0.257659000000000      1.896301000000000      2.979963000000000
C      -0.324371000000000     -0.489758000000000      3.837978000000000
C       0.270393000000000     -1.369641000000000      2.795252000000000
C       0.444760000000000      0.874015000000000      3.850390000000000
C       1.548531000000000     -1.314729000000000      2.302914000000000
C       0.966030000000000     -2.836858000000000      0.575638000000000
C       1.133759000000000     -3.538316000000000     -0.720137000000000
C       1.883260000000000     -2.015681000000000      1.163811000000000
C       1.467985000000000     -1.636110000000000     -2.255342000000000
C       2.185706000000000     -2.728550000000000     -1.559344000000000
C       1.593472000000000      0.675635000000000     -2.815317000000000
C       2.172792000000000     -0.445150000000000     -2.294483000000000
C       0.689622000000000      2.936848000000000     -2.650952000000000
C       0.330446000000000      3.734969000000000     -1.346814000000000
C       2.095143000000000      2.069901000000000     -2.645949000000000
C       0.248751000000000      3.197101000000000      0.973099000000000
C       0.671414000000000      2.530343000000000      2.102203000000000
C       1.009858000000000      3.131018000000000     -0.172670000000000
C       1.998562000000000      0.893364000000000      3.274182000000000
C       2.652663000000000     -0.443897000000000      2.781070000000000
C       1.859474000000000      1.800213000000000      2.101028000000000
C       3.294556000000000     -1.798833000000000      0.739165000000000
C       3.421652000000000     -1.914021000000000     -0.816177000000000
C       3.504666000000000     -0.535719000000000     -1.632065000000000
C       3.716795000000000     -0.480457000000000      1.511150000000000
C       3.005306000000000      2.117159000000000     -1.370397000000000
C       2.156669000000000      2.380011000000000     -0.187306000000000
C       2.566218000000000      1.692223000000000      0.938444000000000
C       3.885439000000000      0.816988000000000     -0.902534000000000
C       3.771016000000000      0.853612000000000      0.683011000000000
O      -4.880434000000000     -1.200184000000000     -1.184324000000000
H      -5.479324000000000     -1.234136000000000     -0.406617000000000
O      -3.193222000000000     -2.789218000000000     -2.915973000000000
H      -4.057274000000000     -2.426085000000000     -2.675479000000000
O      -1.901504000000000     -4.667342000000000      0.521405000000000
H      -1.816409000000000     -5.310921000000000     -0.200756000000000
O      -5.108200000000000     -0.629216000000000      1.257179000000000
H      -5.242620000000000     -1.461686000000000      1.747465000000000
O      -0.598933000000000     -5.032250000000000     -1.600743000000000
H      -0.753432000000000     -5.013293000000000     -2.570834000000000
O      -0.880959000000000     -3.617343000000000     -3.570711000000000
H      -1.580385000000000     -3.282452000000000     -4.151802000000000
O      -4.054613000000000     -2.845702000000000      1.595586000000000
H      -3.659662000000000     -3.572393000000000      2.108373000000000
O      -2.338608000000000     -0.997133000000000     -4.533417000000000
H      -2.833480000000000     -0.245947000000000     -4.894815000000000
O      -3.446836000000000      1.086635000000000     -3.831229000000000
H      -4.131526000000000      1.671922000000000     -3.465664000000000
O      -4.780167000000000      1.241528000000000     -1.707151000000000
H      -5.352033000000000      0.465584000000000     -1.870558000000000
O      -2.510957000000000     -2.847120000000000      3.526302000000000
H      -2.973467000000000     -2.369500000000000      4.241611000000000
O      -2.674460000000000     -0.513083000000000      4.554702000000000
H      -2.063652000000000     -0.742870000000000      5.288387000000000
O      -0.269380000000000     -1.059027000000000      5.117647000000000
H       0.105628000000000     -0.368693000000000      5.701850000000000
O       0.488473000000000      1.307552000000000      5.182312000000000
H       1.367580000000000      1.726957000000000      5.298078000000000
O       2.801611000000000      1.445803000000000      4.276958000000000
H       3.324924000000000      0.696712000000000      4.630888000000000
O       3.321826000000000     -0.986514000000000      3.887932000000000
H       4.145725000000000     -1.386404000000000      3.543952000000000
O       4.974972000000000     -0.711579000000000      2.047021000000000
H       5.432963000000000      0.155559000000000      2.048961000000000
O       4.881253000000000      1.579774000000000      1.183734000000000
H       5.457640000000000      1.780218000000000      0.425335000000000
O       5.221045000000000      1.087502000000000     -1.192392000000000
H       5.393209000000000      0.716008000000000     -2.079483000000000
O       4.466383000000000     -0.716254000000000     -2.649708000000000
H       5.057454000000000     -1.433174000000000     -2.336411000000000
O      -1.865725000000000      4.863372000000000     -1.314091000000000
H      -1.640319000000000      5.575166000000000     -0.686309000000000
O       0.761660000000000      5.058264000000000     -1.483720000000000
H       0.402129000000000      5.384174000000000     -2.323947000000000
O      -1.216687000000000      5.082743000000000      1.136534000000000
H      -1.862154000000000      5.116419000000000      1.870105000000000
O       0.749832000000000      3.867164000000000     -3.694454000000000
H       1.464616000000000      3.571718000000000     -4.289745000000000
O      -2.891814000000000      3.796722000000000      2.405747000000000
H      -3.829046000000000      3.725198000000000      2.154660000000000
O       2.788982000000000     -3.616088000000000     -2.466789000000000
H       2.621670000000000     -4.512972000000000     -2.112263000000000
O       4.589307000000000     -2.630371000000000     -1.081284000000000
H       4.354154000000000     -3.267093000000000     -1.795222000000000
O      -4.491712000000000      2.546520000000000      0.938364000000000
H      -5.026003000000000      2.234384000000000      0.193991000000000
O       2.846687000000000      2.479308000000000     -3.755513000000000
H       3.627854000000000      2.948497000000000     -3.402929000000000
O       3.941771000000000      3.163873000000000     -1.563113000000000
H       3.542473000000000      3.990045000000000     -1.259901000000000
O       1.672952000000000     -4.832775000000000     -0.565701000000000
H       0.948545000000000     -5.465708000000000     -0.723276000000000
O       4.070160000000000     -2.809923000000000      1.345619000000000
H       3.905354000000000     -3.646751000000000      0.894479000000000
