128

C      -2.826214000000000     -2.362838000000000      0.486673000000000
C      -1.670289000000000     -3.263684000000000     -0.093647000000000
C      -1.671131000000000     -2.958234000000000     -1.627173000000000
C      -2.870166000000000     -1.237348000000000     -0.513263000000000
C      -2.329698000000000     -1.596346000000000     -1.665211000000000
C      -3.848214000000000     -0.128634000000000     -0.357459000000000
C      -3.690326000000000      0.533146000000000      1.053158000000000
C      -2.716708000000000     -1.943216000000000      1.974607000000000
C      -3.096451000000000     -0.382481000000000      2.214528000000000
C      -1.292445000000000     -2.128009000000000      2.714295000000000
C      -0.357054000000000     -2.935436000000000      0.520654000000000
C      -0.206489000000000     -2.993253000000000      2.008466000000000
C       0.798683000000000     -2.898599000000000     -0.120455000000000
C      -0.282661000000000     -2.991605000000000     -2.407551000000000
C       1.014884000000000     -3.232573000000000     -1.548107000000000
C      -0.017784000000000     -1.636664000000000     -2.993849000000000
C      -2.431082000000000     -0.839227000000000     -2.946740000000000
C      -0.969880000000000     -0.718605000000000     -3.326653000000000
C      -3.599290000000000      1.034767000000000     -1.383587000000000
C      -2.916079000000000      0.664011000000000     -2.758989000000000
C      -2.825752000000000      1.736132000000000      0.721088000000000
C      -2.779086000000000      2.014401000000000     -0.563978000000000
C      -2.229050000000000      2.579177000000000      1.796437000000000
C      -1.778430000000000      0.217674000000000      2.596653000000000
C      -0.808671000000000     -0.733517000000000      2.827516000000000
C      -1.414810000000000      1.543023000000000      2.513013000000000
C       0.504365000000000     -0.379183000000000      2.926393000000000
C       1.361648000000000     -2.673112000000000      2.258926000000000
C       1.978263000000000     -2.909064000000000      0.797493000000000
C       1.674351000000000     -1.298773000000000      2.964346000000000
C       3.096974000000000     -1.951481000000000      0.327462000000000
C       2.143158000000000     -2.332268000000000     -2.196290000000000
C       1.329370000000000     -1.257390000000000     -2.837130000000000
C       3.279082000000000     -1.754705000000000     -1.246131000000000
C       1.720618000000000      0.027053000000000     -3.022314000000000
C      -0.598827000000000      0.633258000000000     -3.382566000000000
C      -1.624999000000000      1.453926000000000     -2.891608000000000
C       0.737050000000000      1.001238000000000     -3.247526000000000
C      -2.120394000000000      3.218067000000000     -1.163784000000000
C      -1.254457000000000      2.592530000000000     -2.229789000000000
C      -1.168561000000000      3.691543000000000      1.343900000000000
C      -1.106118000000000      4.028962000000000     -0.229206000000000
C      -0.090415000000000      1.904641000000000      2.627721000000000
C       0.873525000000000      0.945938000000000      2.821944000000000
C       0.210029000000000      3.251336000000000      2.036783000000000
C       2.793439000000000     -0.377017000000000      2.334072000000000
C       2.888641000000000     -0.566511000000000      0.866372000000000
C       2.356073000000000      1.107972000000000      2.679353000000000
C       3.566792000000000     -0.164288000000000     -1.344213000000000
C       2.999819000000000      0.638200000000000     -2.548667000000000
C       3.102871000000000      0.384862000000000     -0.028390000000000
C       1.102703000000000      2.208107000000000     -2.638988000000000
C       0.093055000000000      2.965302000000000     -2.106449000000000
C       0.318599000000000      3.876160000000000     -0.929320000000000
C       2.574486000000000      2.181394000000000     -2.254998000000000
C       1.342434000000000      2.893953000000000      1.127046000000000
C       2.629690000000000      2.248873000000000      1.629381000000000
C       3.321128000000000      1.828737000000000      0.286568000000000
C       1.364747000000000      3.135147000000000     -0.165768000000000
C       2.694502000000000      2.774538000000000     -0.802868000000000
O      -4.055344000000000     -3.043215000000000      0.285430000000000
H      -4.305168000000000     -3.434893000000000      1.140748000000000
O      -5.148862000000000     -0.615889000000000     -0.566735000000000
H      -5.166646000000000     -1.551975000000000     -0.300423000000000
O      -3.246501000000000     -1.544669000000000     -3.834459000000000
H      -3.677533000000000     -0.877253000000000     -4.397515000000000
O      -1.927019000000000     -4.621296000000000      0.162594000000000
H      -2.622825000000000     -4.883783000000000     -0.463504000000000
O      -3.791951000000000      0.938299000000000     -3.818436000000000
H      -4.566760000000000      1.391600000000000     -3.433848000000000
O      -4.841172000000000      1.650355000000000     -1.671908000000000
H      -5.532202000000000      1.070879000000000     -1.305277000000000
O       1.988339000000000     -1.499422000000000      4.312884000000000
H       2.606426000000000     -2.243141000000000      4.364057000000000
O       1.902378000000000     -3.638945000000000      3.103889000000000
H       1.411079000000000     -4.463908000000000      2.962308000000000
O      -2.535632000000000     -3.899546000000000     -2.213585000000000
H      -2.821122000000000     -3.543177000000000     -3.068456000000000
O       4.296391000000000     -2.461191000000000      0.866287000000000
H       4.955218000000000     -2.461497000000000      0.150032000000000
O       2.501565000000000     -4.223202000000000      0.755145000000000
H       3.403556000000000     -4.148897000000000      1.123073000000000
O      -3.641357000000000     -2.738531000000000      2.659304000000000
H      -3.580574000000000     -2.485474000000000      3.595674000000000
O      -1.537796000000000     -2.653042000000000      3.990317000000000
H      -1.238664000000000     -3.578730000000000      3.984296000000000
O      -0.350850000000000     -3.936325000000000     -3.432780000000000
H      -0.334887000000000     -4.818252000000000     -3.035088000000000
O       4.464071000000000     -2.412193000000000     -1.578820000000000
H       4.343812000000000     -2.769271000000000     -2.481362000000000
O       2.773238000000000     -3.099113000000000     -3.199258000000000
H       2.416963000000000     -4.005118000000000     -3.130496000000000
O       0.663553000000000      4.212980000000000      2.947102000000000
H      -0.079099000000000      4.815998000000000      3.121009000000000
O      -1.561968000000000      4.862104000000000      2.012051000000000
H      -1.709347000000000      5.533516000000000      1.307134000000000
O      -1.470959000000000      5.378234000000000     -0.326205000000000
H      -0.826821000000000      5.818073000000000     -0.908144000000000
O       0.798624000000000      5.159095000000000     -1.273572000000000
H       1.764223000000000      5.156355000000000     -1.167603000000000
O       3.430553000000000      3.976658000000000     -0.850151000000000
H       3.871701000000000      4.003099000000000     -1.720634000000000
O       4.714212000000000      2.016235000000000      0.363223000000000
H       4.842289000000000      2.846045000000000      0.854935000000000
O       3.457193000000000      3.233121000000000      2.185493000000000
H       3.061701000000000      3.508684000000000      3.024088000000000
O       3.344194000000000      2.995624000000000     -3.099908000000000
H       3.765784000000000      2.392977000000000     -3.747035000000000
O       3.953589000000000      0.637012000000000     -3.577634000000000
H       4.794086000000000      0.343152000000000     -3.168530000000000
O       2.968361000000000      1.494740000000000      3.880573000000000
H       2.911429000000000      0.742544000000000      4.488323000000000
O      -3.289887000000000      3.138795000000000      2.528575000000000
H      -3.005965000000000      4.032183000000000      2.793043000000000
O      -3.974963000000000     -0.356732000000000      3.302758000000000
H      -4.838645000000000     -0.048409000000000      2.971242000000000
O      -4.954531000000000      1.009442000000000      1.458724000000000
H      -4.805797000000000      1.836832000000000      1.947300000000000
O       4.002281000000000     -0.699855000000000      2.960901000000000
H       4.715055000000000     -0.186454000000000      2.562783000000000
O       4.978394000000000     -0.040462000000000     -1.397553000000000
H       5.241237000000000      0.702418000000000     -0.825972000000000
O       1.368762000000000     -4.591777000000000     -1.661905000000000
H       1.871501000000000     -4.832514000000000     -0.859756000000000
O      -0.400399000000000     -4.338737000000000      2.421229000000000
H      -0.998987000000000     -4.766437000000000      1.784058000000000
O      -3.083124000000000      4.118699000000000     -1.643903000000000
H      -3.888744000000000      3.626768000000000     -1.850872000000000
