128

C       3.281684000000000      1.475740000000000     -0.479519000000000
C       3.590857000000000     -0.018198000000000     -0.103869000000000
C       3.313400000000000     -0.089018000000000      1.433485000000000
C       2.289289000000000      1.862542000000000      0.586822000000000
C       2.338696000000000      1.044984000000000      1.627062000000000
C       1.748560000000000      3.245220000000000      0.620470000000000
C       1.074395000000000      3.579223000000000     -0.754539000000000
C       2.854600000000000      1.765335000000000     -1.947607000000000
C       1.624648000000000      2.811462000000000     -2.038313000000000
C       2.394986000000000      0.524692000000000     -2.878119000000000
C       2.716310000000000     -0.953767000000000     -0.854842000000000
C       2.697744000000000     -0.908937000000000     -2.349478000000000
C       2.188889000000000     -2.056451000000000     -0.353824000000000
C       2.761658000000000     -1.428942000000000      2.039061000000000
C       2.417700000000000     -2.571060000000000      1.018463000000000
C       1.425526000000000     -1.180959000000000      2.697562000000000
C       1.796956000000000      1.333681000000000      2.984188000000000
C       1.134683000000000      0.026893000000000      3.556458000000000
C       0.611405000000000      3.395844000000000      1.690829000000000
C       0.657607000000000      2.430127000000000      2.944508000000000
C      -0.377559000000000      3.281001000000000     -0.443041000000000
C      -0.634901000000000      3.206883000000000      0.845042000000000
C      -1.405211000000000      3.265096000000000     -1.522224000000000
C       0.503324000000000      1.960267000000000     -2.557497000000000
C       0.930195000000000      0.720765000000000     -2.993377000000000
C      -0.844596000000000      2.201771000000000     -2.421261000000000
C       0.035797000000000     -0.272698000000000     -3.268651000000000
C       1.728056000000000     -2.131045000000000     -2.768160000000000
C       1.683612000000000     -2.993612000000000     -1.408209000000000
C       0.339237000000000     -1.747218000000000     -3.402122000000000
C       0.349047000000000     -3.654144000000000     -0.984072000000000
C       1.130797000000000     -3.252762000000000      1.605366000000000
C       0.550924000000000     -2.157278000000000      2.471230000000000
C       0.053758000000000     -3.748766000000000      0.585030000000000
C      -0.849699000000000     -2.171060000000000      3.049687000000000
C      -0.330247000000000      0.283350000000000      3.353863000000000
C      -0.588509000000000      1.578364000000000      2.948044000000000
C      -1.239817000000000     -0.722537000000000      3.118607000000000
C      -1.996498000000000      3.054172000000000      1.441225000000000
C      -1.789182000000000      1.855261000000000      2.330177000000000
C      -2.862746000000000      2.742876000000000     -1.122620000000000
C      -3.178157000000000      2.626760000000000      0.453210000000000
C      -1.755470000000000      1.197024000000000     -2.678491000000000
C      -1.325652000000000     -0.038474000000000     -3.092962000000000
C      -3.078458000000000      1.417042000000000     -1.997843000000000
C      -0.884590000000000     -2.199689000000000     -2.620940000000000
C      -0.827898000000000     -2.865494000000000     -1.484299000000000
C      -2.085624000000000     -1.341280000000000     -2.996654000000000
C      -1.252476000000000     -2.977671000000000      0.726779000000000
C      -1.907445000000000     -2.770313000000000      2.038628000000000
C      -1.808929000000000     -2.697997000000000     -0.449885000000000
C      -2.429292000000000     -0.455349000000000      2.467384000000000
C      -2.698576000000000      0.845627000000000      2.087421000000000
C      -3.649109000000000      1.196287000000000      0.976783000000000
C      -3.084415000000000     -1.709856000000000      1.943998000000000
C      -3.230941000000000      0.133995000000000     -1.241777000000000
C      -3.236980000000000     -1.219939000000000     -1.933799000000000
C      -3.190204000000000     -2.211814000000000     -0.707523000000000
C      -3.450511000000000      0.046745000000000      0.052013000000000
C      -3.712809000000000     -1.371384000000000      0.522540000000000
O       4.433521000000000      2.247983000000000     -0.176758000000000
H       4.855326000000000      2.453374000000000     -1.033963000000000
O       2.770127000000000      4.151905000000000      0.940640000000000
H       3.618260000000000      3.769002000000000      0.653589000000000
O       2.887990000000000      1.746831000000000      3.757032000000000
H       2.549644000000000      1.919388000000000      4.649168000000000
O       4.922152000000000     -0.344885000000000     -0.406855000000000
H       5.471397000000000      0.109468000000000      0.253598000000000
O       0.770784000000000      3.172980000000000      4.125442000000000
H       0.693210000000000      4.113556000000000      3.881669000000000
O       0.611904000000000      4.726477000000000      2.166984000000000
H       1.459150000000000      5.120600000000000      1.894437000000000
O       0.251714000000000     -2.139612000000000     -4.747073000000000
H       1.060177000000000     -2.634842000000000     -4.957655000000000
O       2.371498000000000     -2.901234000000000     -3.737309000000000
H       3.329107000000000     -2.785909000000000     -3.610419000000000
O       4.526224000000000      0.236968000000000      2.079431000000000
H       4.305966000000000      0.785792000000000      2.854498000000000
O       0.344850000000000     -4.941518000000000     -1.550553000000000
H      -0.186695000000000     -5.508195000000000     -0.966268000000000
O       2.660949000000000     -4.009401000000000     -1.520273000000000
H       2.215366000000000     -4.762848000000000     -1.947871000000000
O       3.973622000000000      2.334482000000000     -2.566778000000000
H       3.622642000000000      2.911947000000000     -3.272434000000000
O       2.975328000000000      0.681359000000000     -4.138910000000000
H       3.798944000000000      0.165838000000000     -4.149357000000000
O       3.639274000000000     -1.934704000000000      3.000568000000000
H       4.509322000000000     -1.526933000000000      2.854965000000000
O      -0.270929000000000     -5.093533000000000      0.889371000000000
H       0.405581000000000     -5.394384000000000      1.531887000000000
O       1.532742000000000     -4.351374000000000      2.390228000000000
H       2.507084000000000     -4.322295000000000      2.432336000000000
O      -4.166666000000000      1.543821000000000     -2.869988000000000
H      -4.403559000000000      2.486793000000000     -2.897117000000000
O      -3.749294000000000      3.690923000000000     -1.659305000000000
H      -4.283965000000000      4.013151000000000     -0.896910000000000
O      -4.233228000000000      3.519279000000000      0.680347000000000
H      -4.903818000000000      3.051666000000000      1.209657000000000
O      -5.002177000000000      1.274666000000000      1.366877000000000
H      -5.418694000000000      0.418586000000000      1.163262000000000
O      -5.113359000000000     -1.479893000000000      0.615525000000000
H      -5.304407000000000     -1.970207000000000      1.439186000000000
O      -3.981683000000000     -3.337751000000000     -0.923307000000000
H      -4.714343000000000     -3.049398000000000     -1.492925000000000
O      -4.481147000000000     -1.430436000000000     -2.538840000000000
H      -4.540417000000000     -0.855210000000000     -3.313246000000000
O      -4.124517000000000     -2.139016000000000      2.788433000000000
H      -3.954479000000000     -3.071431000000000      3.005822000000000
O      -2.406627000000000     -3.992453000000000      2.548722000000000
H      -2.051142000000000     -4.711973000000000      2.003421000000000
O      -2.653627000000000     -1.749652000000000     -4.211407000000000
H      -1.923724000000000     -1.936964000000000     -4.820641000000000
O      -1.449253000000000      4.559373000000000     -2.072198000000000
H      -2.381526000000000      4.733176000000000     -2.296777000000000
O       1.998333000000000      3.762763000000000     -2.998843000000000
H       1.981662000000000      4.634020000000000     -2.552631000000000
O       1.189838000000000      4.967764000000000     -0.985580000000000
H       0.345329000000000      5.268977000000000     -1.362936000000000
O      -2.385516000000000      4.225341000000000      2.106153000000000
H      -1.591076000000000      4.685661000000000      2.407539000000000
O       1.543677000000000     -0.142336000000000      4.884978000000000
H       1.144538000000000     -0.954648000000000      5.221149000000000
O      -0.872840000000000     -2.821272000000000      4.288615000000000
H      -1.389925000000000     -3.636843000000000      4.180844000000000
O       3.996580000000000     -1.259752000000000     -2.810746000000000
H       4.636292000000000     -1.043482000000000     -2.109802000000000
O       3.481877000000000     -3.487083000000000      1.004306000000000
H       3.494751000000000     -3.919378000000000      0.129977000000000
