152

C       2.479597000000000      2.940625000000000     -0.218905000000000
C       3.041499000000000      1.867569000000000     -1.232501000000000
C       3.729029000000000      0.777574000000000     -0.363180000000000
C       2.538039000000000      2.176899000000000      1.152600000000000
C       2.800386000000000      0.678504000000000      0.851925000000000
C       1.582080000000000      2.662269000000000      2.259700000000000
C       0.181775000000000      3.183781000000000      1.832446000000000
C       1.136127000000000      3.673419000000000     -0.677906000000000
C      -0.009755000000000      3.857591000000000      0.437368000000000
C       0.337944000000000      3.123769000000000     -1.940995000000000
C       1.988626000000000      1.262213000000000     -2.076541000000000
C       1.095345000000000      2.155452000000000     -2.860405000000000
C       1.955087000000000      0.010927000000000     -2.494177000000000
C       3.705529000000000     -0.688656000000000     -0.842440000000000
C       2.970797000000000     -1.020915000000000     -2.183115000000000
C       2.785476000000000     -1.302242000000000      0.199382000000000
C       3.214676000000000     -0.023154000000000      2.135080000000000
C       3.171871000000000     -1.501204000000000      1.649774000000000
C       1.318353000000000      1.528664000000000      3.372329000000000
C       2.052764000000000      0.142574000000000      3.184218000000000
C      -0.706342000000000      2.029721000000000      2.147817000000000
C      -0.278194000000000      1.417357000000000      3.435874000000000
C      -1.880578000000000      1.822372000000000      1.612558000000000
C      -1.370302000000000      3.417207000000000     -0.274177000000000
C      -0.932963000000000      2.572270000000000     -1.403436000000000
C      -2.448629000000000      2.714417000000000      0.568250000000000
C      -1.950627000000000      2.144925000000000     -2.383764000000000
C       0.198282000000000      1.185602000000000     -3.736157000000000
C       1.030895000000000     -0.185417000000000     -3.652920000000000
C      -1.317843000000000      1.076195000000000     -3.345684000000000
C       0.235610000000000     -1.499274000000000     -3.505755000000000
C       2.341366000000000     -2.460838000000000     -2.009275000000000
C       2.454044000000000     -2.660620000000000     -0.444623000000000
C       0.944510000000000     -2.722391000000000     -2.767231000000000
C       1.351577000000000     -3.503421000000000      0.182160000000000
C       1.972104000000000     -2.181330000000000      2.413882000000000
C       1.141241000000000     -0.983482000000000      2.769922000000000
C       1.175126000000000     -3.349311000000000      1.738290000000000
C      -0.934348000000000      0.042486000000000      3.632982000000000
C      -0.156985000000000     -1.018442000000000      2.948813000000000
C      -2.957068000000000      0.936183000000000      2.145084000000000
C      -2.440309000000000     -0.183467000000000      3.124209000000000
C      -3.500900000000000      1.802180000000000     -0.191835000000000
C      -3.232492000000000      1.444706000000000     -1.732341000000000
C      -3.674639000000000      0.542627000000000      0.807641000000000
C      -1.668508000000000     -0.180568000000000     -2.625504000000000
C      -1.015727000000000     -1.311249000000000     -2.705060000000000
C      -3.070953000000000     -0.081390000000000     -2.130511000000000
C      -0.211906000000000     -3.342029000000000     -1.854183000000000
C       0.027977000000000     -3.161714000000000     -0.407515000000000
C      -1.540499000000000     -2.634748000000000     -2.256831000000000
C      -0.425617000000000     -3.272460000000000      1.891360000000000
C      -0.982169000000000     -2.248477000000000      2.880461000000000
C      -2.452030000000000     -1.723930000000000      2.619065000000000
C      -0.916098000000000     -3.017403000000000      0.500683000000000
C      -3.056920000000000     -0.693606000000000      0.304072000000000
C      -3.411191000000000     -1.137056000000000     -1.070122000000000
C      -2.733092000000000     -2.569772000000000     -1.220592000000000
C      -3.042916000000000     -1.895938000000000      1.181872000000000
C      -2.374824000000000     -2.973862000000000      0.257921000000000
O       3.484321000000000      3.920590000000000     -0.119340000000000
H       3.124207000000000      4.724883000000000     -0.550201000000000
O       2.175796000000000      3.774599000000000      2.892972000000000
H       3.135446000000000      3.713048000000000      2.717086000000000
O       4.456285000000000      0.312580000000000      2.660206000000000
H       4.942526000000000     -0.524164000000000      2.767096000000000
O       3.957901000000000      2.471901000000000     -2.110660000000000
H       4.521013000000000      3.044149000000000     -1.556591000000000
O       2.593908000000000     -0.238437000000000      4.433123000000000
H       2.567589000000000      0.552797000000000      5.002915000000000
O       1.751957000000000      2.039392000000000      4.598633000000000
H       2.013914000000000      2.969775000000000      4.437275000000000
O       5.046673000000000      1.201056000000000     -0.117490000000000
H       5.582713000000000      0.390772000000000     -0.026235000000000
O      -0.219742000000000      4.134056000000000      2.810199000000000
H       0.300308000000000      4.940820000000000      2.678119000000000
O      -0.096101000000000      5.238673000000000      0.676572000000000
H      -0.892251000000000      5.530340000000000      0.170844000000000
O       1.559366000000000      4.958008000000000     -1.063353000000000
H       1.063983000000000      5.591102000000000     -0.498616000000000
O       5.006098000000000     -1.206941000000000     -0.865625000000000
H       5.288105000000000     -1.226895000000000     -1.795661000000000
O       3.901629000000000     -1.057750000000000     -3.239857000000000
H       4.089415000000000     -2.022750000000000     -3.353909000000000
O       3.274244000000000     -3.337532000000000     -2.588556000000000
H       2.791375000000000     -3.807780000000000     -3.307531000000000
O       1.209899000000000     -3.681943000000000     -3.756636000000000
H       0.833586000000000     -4.525059000000000     -3.414422000000000
O      -0.316144000000000     -4.720529000000000     -2.115421000000000
H      -1.096021000000000     -4.824756000000000     -2.696228000000000
O      -2.923631000000000     -4.245896000000000      0.500629000000000
H      -2.405125000000000     -4.657490000000000      1.219286000000000
O      -5.039116000000000      0.327722000000000      1.029516000000000
H      -5.472033000000000      1.197274000000000      0.924402000000000
O      -3.920697000000000     -0.385139000000000     -3.213828000000000
H      -3.628528000000000      0.146558000000000     -3.974995000000000
O      -2.000387000000000     -3.331594000000000     -3.407366000000000
H      -2.962105000000000     -3.456633000000000     -3.285157000000000
O      -3.717968000000000     -3.447211000000000     -1.697007000000000
H      -3.872325000000000     -4.109696000000000     -0.999197000000000
O      -4.709598000000000      2.500596000000000     -0.132036000000000
H      -5.109438000000000      2.431208000000000     -1.026753000000000
O      -4.356991000000000      1.902477000000000     -2.437335000000000
H      -4.047338000000000      2.629634000000000     -3.013261000000000
O      -4.395862000000000     -2.291250000000000      1.383450000000000
H      -4.943620000000000     -1.943739000000000      0.656753000000000
O      -3.259191000000000     -2.450752000000000      3.505174000000000
H      -4.097078000000000     -2.633631000000000      3.037577000000000
O       0.212314000000000      1.647520000000000     -5.051131000000000
H       0.944117000000000      1.185518000000000     -5.501514000000000
O       1.800929000000000     -0.231662000000000     -4.832644000000000
H       2.692196000000000     -0.551103000000000     -4.609936000000000
O      -3.849563000000000      1.781456000000000      2.846532000000000
H      -4.024316000000000      1.347941000000000      3.702484000000000
O      -3.268237000000000     -0.116219000000000      4.249227000000000
H      -3.499831000000000     -1.043230000000000      4.475922000000000
O       4.385729000000000     -2.126435000000000      1.923933000000000
H       4.572910000000000     -2.730460000000000      1.183806000000000
O       1.652344000000000     -4.844799000000000     -0.144098000000000
H       1.422964000000000     -5.382742000000000      0.631139000000000
O       1.588479000000000     -4.560088000000000      2.299272000000000
H       2.016472000000000     -4.348010000000000      3.147428000000000
O       1.871239000000000      2.924634000000000     -3.755745000000000
H       2.785743000000000      2.954616000000000     -3.417091000000000
O      -0.013423000000000      4.240742000000000     -2.745133000000000
H       0.662764000000000      4.284762000000000     -3.451637000000000
O      -0.901634000000000     -4.549848000000000      2.253738000000000
H      -0.896693000000000     -4.575308000000000      3.225859000000000
O      -0.906347000000000     -0.282200000000000      5.005802000000000
H      -1.061371000000000      0.547988000000000      5.485042000000000
O      -2.440649000000000      3.237933000000000     -3.132744000000000
H      -1.739709000000000      3.918656000000000     -3.150954000000000
O       3.785345000000000      2.501857000000000      1.740754000000000
H       4.529826000000000      2.221801000000000      1.171519000000000
O      -2.095053000000000      1.070315000000000     -4.524901000000000
H      -1.503477000000000      1.377552000000000     -5.239534000000000
O      -0.751971000000000      2.187305000000000      4.514225000000000
H      -0.639941000000000      3.124959000000000      4.282670000000000
O      -0.111353000000000     -1.862276000000000     -4.811696000000000
H      -0.772024000000000     -2.570454000000000     -4.771866000000000
O      -3.133931000000000      3.765299000000000      1.213901000000000
H      -3.689573000000000      3.371876000000000      1.909277000000000
O       2.476417000000000     -2.734714000000000      3.611567000000000
H       2.745918000000000     -1.997464000000000      4.188626000000000
O      -0.930031000000000     -2.882445000000000      4.139876000000000
H      -1.004308000000000     -2.197142000000000      4.824547000000000
O       3.657462000000000     -3.375410000000000     -0.229870000000000
H       3.411561000000000     -4.319017000000000     -0.305756000000000
O      -4.813176000000000     -1.320061000000000     -1.093494000000000
H      -5.104824000000000     -1.172047000000000     -2.009407000000000
O      -1.972277000000000      4.607549000000000     -0.777193000000000
H      -2.798646000000000      4.730220000000000     -0.272674000000000
