156

C       3.863797000000000      0.282692000000000     -0.804347000000000
C       3.418600000000000     -1.248510000000000     -0.919613000000000
C       3.226971000000000     -1.786781000000000      0.535429000000000
C       3.606060000000000      0.595509000000000      0.721406000000000
C       2.749945000000000     -0.538978000000000      1.217935000000000
C       3.215395000000000      2.031146000000000      1.139667000000000
C       2.450314000000000      2.900517000000000      0.093477000000000
C       3.269703000000000      1.260506000000000     -1.930521000000000
C       2.613745000000000      2.648700000000000     -1.440961000000000
C       2.191296000000000      0.692685000000000     -2.955524000000000
C       2.119581000000000     -1.377971000000000     -1.602078000000000
C       2.011829000000000     -0.813163000000000     -2.982002000000000
C       1.562538000000000     -2.751713000000000     -1.687867000000000
C       2.301858000000000     -3.042735000000000      0.803810000000000
C       1.376605000000000     -3.552525000000000     -0.382172000000000
C       1.286182000000000     -2.826441000000000      2.018062000000000
C       2.557271000000000     -0.599999000000000      2.690191000000000
C       1.568926000000000     -1.765720000000000      3.119762000000000
C       2.308234000000000      2.082720000000000      2.489852000000000
C       1.901334000000000      0.726099000000000      3.183214000000000
C       1.049470000000000      2.870445000000000      0.595747000000000
C       1.049157000000000      2.973724000000000      2.078430000000000
C      -0.006824000000000      3.121144000000000     -0.129724000000000
C       1.238703000000000      2.776712000000000     -2.258815000000000
C       0.920666000000000      1.387394000000000     -2.642693000000000
C       0.043957000000000      3.456420000000000     -1.581278000000000
C      -0.264882000000000      0.972719000000000     -3.022635000000000
C       0.644615000000000     -1.385948000000000     -3.570966000000000
C       0.346027000000000     -2.637695000000000     -2.640833000000000
C      -0.526309000000000     -0.333323000000000     -3.730052000000000
C      -1.065045000000000     -2.559637000000000     -2.024277000000000
C      -0.066868000000000     -3.589177000000000      0.198106000000000
C      -0.053807000000000     -2.649150000000000      1.353605000000000
C      -1.250035000000000     -3.470954000000000     -0.790861000000000
C      -1.268337000000000     -2.725257000000000      2.210901000000000
C       0.241056000000000     -1.029198000000000      3.602890000000000
C       0.447094000000000      0.359127000000000      3.073244000000000
C      -1.190662000000000     -1.633124000000000      3.335861000000000
C      -0.335206000000000      2.661257000000000      2.680367000000000
C      -0.527937000000000      1.203398000000000      2.851847000000000
C      -1.336562000000000      3.505010000000000      0.408751000000000
C      -1.645237000000000      3.103946000000000      1.878428000000000
C      -1.437308000000000      3.087268000000000     -2.068405000000000
C      -1.514978000000000      1.811285000000000     -3.010867000000000
C      -2.291408000000000      3.051828000000000     -0.730644000000000
C      -1.983850000000000     -0.641342000000000     -3.240670000000000
C      -1.932817000000000     -1.259110000000000     -1.840209000000000
C      -2.603087000000000      0.707659000000000     -2.792618000000000
C      -2.596525000000000     -2.969829000000000     -0.125208000000000
C      -2.524198000000000     -2.414258000000000      1.342805000000000
C      -3.162043000000000     -1.895676000000000     -1.142295000000000
C      -2.287264000000000     -0.584492000000000      2.875052000000000
C      -1.962352000000000      0.900428000000000      3.065427000000000
C      -2.732212000000000      1.932300000000000      2.149898000000000
C      -2.568176000000000     -0.927278000000000      1.455526000000000
C      -3.026952000000000      1.696756000000000     -0.569667000000000
C      -2.667872000000000      0.339966000000000     -1.305359000000000
C      -3.754058000000000     -0.554706000000000     -0.682067000000000
C      -3.520288000000000      1.365231000000000      0.884250000000000
C      -3.693897000000000     -0.203136000000000      0.825992000000000
O       5.256752000000000      0.282052000000000     -0.945320000000000
H       5.447045000000000      0.732386000000000     -1.796233000000000
O       4.398044000000000      2.749928000000000      1.392273000000000
H       5.093835000000000      2.084038000000000      1.560216000000000
O       3.797697000000000     -0.802875000000000      3.308661000000000
H       3.624645000000000     -1.323472000000000      4.114197000000000
O       4.436615000000000     -1.975648000000000     -1.562673000000000
H       5.267288000000000     -1.500492000000000     -1.357917000000000
O       2.187802000000000      0.830088000000000      4.564819000000000
H       2.712364000000000      1.644483000000000      4.680285000000000
O       3.038732000000000      2.802627000000000      3.440336000000000
H       3.819664000000000      3.165879000000000      2.970170000000000
O       4.523551000000000     -2.108282000000000      1.012593000000000
H       4.485841000000000     -3.000948000000000      1.403468000000000
O       2.827367000000000      4.247913000000000      0.338213000000000
H       3.660621000000000      4.419964000000000     -0.126486000000000
O       3.454109000000000      3.671945000000000     -1.920009000000000
H       2.908625000000000      4.167468000000000     -2.576078000000000
O       4.376548000000000      1.589953000000000     -2.735032000000000
H       4.469016000000000      2.567453000000000     -2.689498000000000
O       3.160421000000000     -4.087707000000000      1.173947000000000
H       2.948612000000000     -4.856303000000000      0.614622000000000
O       1.770892000000000     -4.875633000000000     -0.655754000000000
H       1.153825000000000     -5.243976000000000     -1.303038000000000
O      -0.163748000000000     -4.921530000000000      0.734403000000000
H      -0.963641000000000     -4.977973000000000      1.282332000000000
O      -1.426355000000000     -4.765544000000000     -1.316257000000000
H      -2.221388000000000     -5.139757000000000     -0.893853000000000
O      -3.451551000000000     -4.083383000000000     -0.078960000000000
H      -4.216730000000000     -3.899586000000000     -0.647985000000000
O      -4.936388000000000     -0.581128000000000      1.372904000000000
H      -4.781488000000000     -0.892900000000000      2.283802000000000
O      -3.298064000000000      4.033419000000000     -0.741096000000000
H      -3.338687000000000      4.400403000000000     -1.637789000000000
O      -3.761368000000000      0.988309000000000     -3.508787000000000
H      -3.921680000000000      0.200482000000000     -4.069096000000000
O      -4.095577000000000     -2.572350000000000     -1.954725000000000
H      -4.801361000000000     -1.931174000000000     -2.164856000000000
O      -5.084422000000000     -0.424995000000000     -1.130811000000000
H      -5.635220000000000     -0.492353000000000     -0.323434000000000
O      -1.935583000000000      4.174101000000000     -2.790509000000000
H      -1.489880000000000      4.175343000000000     -3.651792000000000
O      -1.681820000000000      2.293898000000000     -4.323694000000000
H      -2.633380000000000      2.223542000000000     -4.520264000000000
O      -4.828548000000000      1.886851000000000      0.986034000000000
H      -4.904279000000000      2.606495000000000      0.330170000000000
O      -3.687661000000000      2.501523000000000      3.002022000000000
H      -4.538095000000000      2.512470000000000      2.518266000000000
O       0.917163000000000     -1.862303000000000     -4.856387000000000
H       0.925883000000000     -2.841499000000000     -4.786711000000000
O       0.421433000000000     -3.806583000000000     -3.422162000000000
H      -0.487852000000000     -4.125950000000000     -3.564111000000000
O      -1.290881000000000      4.920792000000000      0.353788000000000
H      -1.970196000000000      5.250197000000000      0.966568000000000
O      -2.160055000000000      4.249018000000000      2.488637000000000
H      -1.830054000000000      4.234579000000000      3.408964000000000
O       2.155667000000000     -2.373817000000000      4.231554000000000
H       1.972632000000000     -3.326372000000000      4.173277000000000
O      -1.448125000000000     -3.996570000000000      2.809397000000000
H      -1.483851000000000     -3.829974000000000      3.775451000000000
O      -2.764834000000000     -1.223407000000000     -4.238410000000000
H      -2.267422000000000     -1.075073000000000     -5.066744000000000
O       3.076539000000000     -1.258057000000000     -3.795938000000000
H       3.103429000000000     -2.230174000000000     -3.744729000000000
O       2.533613000000000      1.135787000000000     -4.252137000000000
H       3.167114000000000      0.487556000000000     -4.603908000000000
O      -2.235958000000000      1.169169000000000      4.427547000000000
H      -2.750152000000000      1.993997000000000      4.461396000000000
O      -3.669175000000000     -2.907818000000000      2.005473000000000
H      -3.381196000000000     -3.651917000000000      2.560909000000000
O      -1.631983000000000     -2.254397000000000      4.508990000000000
H      -1.156597000000000     -1.823734000000000      5.243388000000000
O       4.853617000000000      0.431395000000000      1.381307000000000
H       5.095635000000000     -0.514173000000000      1.391581000000000
O       0.300097000000000     -0.938091000000000      5.011473000000000
H       1.032763000000000     -0.337908000000000      5.240078000000000
O      -0.695609000000000     -0.073292000000000     -5.107217000000000
H       0.117723000000000     -0.339104000000000     -5.563300000000000
O       1.518023000000000      3.512995000000000     -3.430956000000000
H       1.862667000000000      2.892578000000000     -4.099230000000000
O      -0.406881000000000      3.263304000000000      3.956164000000000
H       0.299939000000000      3.931593000000000      3.978922000000000
O       0.265358000000000      4.826345000000000     -1.753582000000000
H      -0.344648000000000      5.301322000000000     -1.163149000000000
O       1.296330000000000      4.306284000000000      2.468389000000000
H       1.945309000000000      4.685183000000000      1.851364000000000
O      -3.467264000000000     -0.838947000000000      3.616166000000000
H      -3.379190000000000     -0.296651000000000      4.425337000000000
O       1.266018000000000     -4.044865000000000      2.748063000000000
H       0.945009000000000     -4.745482000000000      2.147157000000000
O      -1.810861000000000     -3.164740000000000     -3.071836000000000
H      -2.761737000000000     -3.208885000000000     -2.866676000000000
O       2.518727000000000     -3.486170000000000     -2.466428000000000
H       3.380856000000000     -3.441455000000000     -2.016740000000000
O      -4.182558000000000      2.022149000000000     -1.318201000000000
H      -4.772007000000000      1.255574000000000     -1.446678000000000
