120

C      -1.208105000000000     -0.977884000000000      2.846122000000000
C      -0.935285000000000      0.566026000000000      2.999946000000000
C       0.616695000000000      0.667059000000000      3.109255000000000
C       0.084879000000000     -1.462526000000000      2.246684000000000
C       1.067394000000000     -0.592157000000000      2.414267000000000
C       0.273297000000000     -2.911150000000000      1.998464000000000
C      -0.895445000000000     -3.470930000000000      1.094835000000000
C      -2.492434000000000     -1.420362000000000      2.084241000000000
C      -2.240129000000000     -2.620756000000000      1.058262000000000
C      -3.229133000000000     -0.319816000000000      1.186405000000000
C      -1.433943000000000      1.327668000000000      1.825987000000000
C      -2.863510000000000      1.156126000000000      1.437284000000000
C      -0.858818000000000      2.383090000000000      1.274605000000000
C       1.309998000000000      1.942802000000000      2.518725000000000
C       0.420055000000000      2.989582000000000      1.735570000000000
C       2.296706000000000      1.508435000000000      1.463239000000000
C       2.519202000000000     -0.890948000000000      2.271551000000000
C       3.204790000000000      0.316545000000000      1.553639000000000
C       1.611684000000000     -3.213290000000000      1.235089000000000
C       2.768483000000000     -2.129853000000000      1.331968000000000
C      -0.248981000000000     -3.456988000000000     -0.271850000000000
C       1.148815000000000     -3.319583000000000     -0.194312000000000
C      -0.900144000000000     -3.259664000000000     -1.457957000000000
C      -2.466459000000000     -1.975139000000000     -0.288197000000000
C      -2.958322000000000     -0.753340000000000     -0.214910000000000
C      -2.337752000000000     -2.788409000000000     -1.534594000000000
C      -3.606540000000000     -0.013787000000000     -1.323702000000000
C      -3.090369000000000      2.159838000000000      0.219737000000000
C      -1.791554000000000      3.138432000000000      0.363894000000000
C      -3.335174000000000      1.546519000000000     -1.211525000000000
C      -1.050118000000000      3.636760000000000     -0.909923000000000
C       1.326986000000000      3.450513000000000      0.529024000000000
C       2.288458000000000      2.286583000000000      0.392018000000000
C       0.566958000000000      3.820414000000000     -0.802300000000000
C       3.204782000000000      2.172229000000000     -0.794027000000000
C       3.359538000000000     -0.165033000000000      0.138599000000000
C       3.073944000000000     -1.445798000000000      0.011171000000000
C       3.893340000000000      0.745512000000000     -0.912455000000000
C       1.883988000000000     -2.977863000000000     -1.298063000000000
C       3.213127000000000     -2.247188000000000     -1.232795000000000
C      -0.176779000000000     -2.808349000000000     -2.574528000000000
C       1.218692000000000     -2.666819000000000     -2.495487000000000
C      -2.416489000000000     -1.926759000000000     -2.861128000000000
C      -3.047959000000000     -0.450423000000000     -2.729498000000000
C      -0.961276000000000     -1.907458000000000     -3.320193000000000
C      -2.172757000000000      1.714561000000000     -2.136189000000000
C      -1.196123000000000      2.653247000000000     -2.026187000000000
C      -2.038825000000000      0.625516000000000     -3.014199000000000
C       1.081926000000000      2.921872000000000     -1.920416000000000
C       2.255088000000000      2.211809000000000     -1.959837000000000
C       0.015486000000000      2.462046000000000     -2.714356000000000
C       3.580518000000000      0.215386000000000     -2.375439000000000
C       3.262710000000000     -1.365666000000000     -2.551960000000000
C       1.891181000000000     -1.622341000000000     -3.162389000000000
C       2.418647000000000      1.089900000000000     -2.792040000000000
C      -0.311944000000000     -0.854131000000000     -3.907623000000000
C      -0.893542000000000      0.463106000000000     -3.749604000000000
C       0.171529000000000      1.385420000000000     -3.580880000000000
C       1.117863000000000     -0.709149000000000     -3.828330000000000
C       1.411441000000000      0.698429000000000     -3.637452000000000
O      -1.229652000000000     -1.537679000000000      4.149605000000000
H      -2.164844000000000     -1.649213000000000      4.395179000000000
O       0.319892000000000     -3.588135000000000      3.228586000000000
H      -0.218574000000000     -3.094103000000000      3.871585000000000
O       3.032276000000000     -1.077220000000000      3.563639000000000
H       3.984942000000000     -0.892719000000000      3.506547000000000
O      -1.568718000000000      1.067867000000000      4.147101000000000
H      -1.015175000000000      0.812560000000000      4.903725000000000
O       3.958612000000000     -2.775482000000000      1.714324000000000
H       3.695522000000000     -3.663878000000000      2.032301000000000
O       2.127714000000000     -4.435485000000000      1.698125000000000
H       1.562927000000000     -4.722996000000000      2.435127000000000
O       0.953770000000000      0.552976000000000      4.481111000000000
H       1.713036000000000     -0.057705000000000      4.543893000000000
O      -1.162442000000000     -4.781791000000000      1.499138000000000
H      -2.092528000000000     -4.828041000000000      1.779005000000000
O       1.973516000000000      2.645879000000000      3.532631000000000
H       1.796003000000000      2.181457000000000      4.370972000000000
O       0.096644000000000      4.067694000000000      2.553507000000000
H       0.915040000000000      4.296614000000000      3.027451000000000
O      -4.624114000000000     -0.446836000000000      1.383515000000000
H      -4.860121000000000      0.250539000000000      2.029904000000000
O      -3.681844000000000      1.602801000000000      2.502575000000000
H      -3.156858000000000      1.590525000000000      3.320767000000000
O      -3.316868000000000     -3.796098000000000     -1.507018000000000
H      -3.554079000000000     -3.973381000000000     -2.433786000000000
O      -3.200506000000000     -2.663239000000000     -3.764104000000000
H      -3.693168000000000     -2.018124000000000     -4.304392000000000
O      -4.105259000000000     -0.349351000000000     -3.661091000000000
H      -4.925537000000000     -0.536866000000000     -3.169416000000000
O      -4.989181000000000     -0.278839000000000     -1.312673000000000
H      -5.271716000000000     -0.332714000000000     -0.380910000000000
O       2.113531000000000      4.542661000000000      0.936880000000000
H       1.734092000000000      5.340162000000000      0.526936000000000
O       0.849824000000000      5.167021000000000     -1.071311000000000
H       0.029416000000000      5.549866000000000     -1.443463000000000
O      -3.394512000000000     -1.824173000000000      3.076090000000000
H      -4.069952000000000     -2.373505000000000      2.648043000000000
O      -3.318108000000000     -3.523414000000000      1.256861000000000
H      -3.550863000000000     -3.895266000000000      0.387056000000000
O       4.356014000000000     -3.065415000000000     -1.175876000000000
H       4.586520000000000     -3.190418000000000     -0.240823000000000
O       5.267613000000000      0.837090000000000     -0.679742000000000
H       5.649413000000000      1.310250000000000     -1.435970000000000
O       4.192456000000000      3.165142000000000     -0.775444000000000
H       3.834926000000000      3.933551000000000     -0.306105000000000
O       4.436702000000000      0.583813000000000      2.171703000000000
H       5.034835000000000      0.941203000000000      1.498563000000000
O       4.696383000000000      0.531944000000000     -3.161349000000000
H       4.936955000000000     -0.280543000000000     -3.648694000000000
O       4.255162000000000     -1.887885000000000     -3.397819000000000
H       4.776864000000000     -2.515930000000000     -2.865890000000000
O      -1.604248000000000      4.865150000000000     -1.300952000000000
H      -1.995466000000000      5.245304000000000     -0.486819000000000
O      -2.220724000000000      4.300481000000000      1.026122000000000
H      -3.072014000000000      4.097610000000000      1.453726000000000
O      -4.212662000000000      2.912116000000000      0.571078000000000
H      -4.705021000000000      3.120099000000000     -0.239520000000000
O      -4.459829000000000      2.225527000000000     -1.746094000000000
H      -4.637854000000000      1.867524000000000     -2.625370000000000
