128

C       2.399628000000000     -1.816629000000000     -1.943340000000000
C       2.562618000000000     -0.331016000000000     -2.448012000000000
C       1.333403000000000     -0.086411000000000     -3.377468000000000
C       0.914784000000000     -2.018123000000000     -2.076054000000000
C       0.361840000000000     -1.154204000000000     -2.906058000000000
C       0.295674000000000     -3.310593000000000     -1.717660000000000
C       0.720055000000000     -3.692641000000000     -0.240325000000000
C       3.020872000000000     -2.181436000000000     -0.555710000000000
C       2.048384000000000     -3.053090000000000      0.362902000000000
C       3.462106000000000     -0.978064000000000      0.407956000000000
C       2.581904000000000      0.640400000000000     -1.320400000000000
C       3.575955000000000      0.421391000000000     -0.229877000000000
C       2.072210000000000      1.862132000000000     -1.317618000000000
C       0.685560000000000      1.363213000000000     -3.369544000000000
C       1.315103000000000      2.480882000000000     -2.435100000000000
C      -0.690270000000000      1.249458000000000     -2.800609000000000
C      -1.060653000000000     -1.177994000000000     -3.385005000000000
C      -1.504363000000000      0.147213000000000     -2.851747000000000
C      -1.284437000000000     -3.223495000000000     -1.697382000000000
C      -2.021027000000000     -2.228919000000000     -2.678542000000000
C      -0.445297000000000     -3.142452000000000      0.528581000000000
C      -1.530210000000000     -2.847913000000000     -0.275626000000000
C      -0.432213000000000     -2.708873000000000      1.829862000000000
C       1.759952000000000     -2.133302000000000      1.534711000000000
C       2.484102000000000     -1.033685000000000      1.532869000000000
C       0.827294000000000     -2.563937000000000      2.625279000000000
C       2.649933000000000     -0.124640000000000      2.692188000000000
C       3.393213000000000      1.657283000000000      0.753218000000000
C       2.571787000000000      2.713330000000000     -0.181397000000000
C       2.756244000000000      1.370549000000000      2.173900000000000
C       1.413639000000000      3.551732000000000      0.449857000000000
C       0.077749000000000      3.327959000000000     -1.905516000000000
C      -1.007020000000000      2.299350000000000     -1.958261000000000
C       0.178299000000000      4.001644000000000     -0.494387000000000
C      -2.133090000000000      2.224081000000000     -1.185762000000000
C      -2.610215000000000      0.048506000000000     -2.033246000000000
C      -3.216388000000000     -1.311429000000000     -2.015926000000000
C      -2.921854000000000      1.083816000000000     -1.198336000000000
C      -2.588780000000000     -2.139759000000000      0.228629000000000
C      -3.725730000000000     -1.601352000000000     -0.556347000000000
C      -1.470423000000000     -1.951141000000000      2.320865000000000
C      -2.565637000000000     -1.692884000000000      1.533358000000000
C       0.492503000000000     -1.478349000000000      3.730848000000000
C       1.381072000000000     -0.157457000000000      3.643836000000000
C      -1.143896000000000     -1.301429000000000      3.621977000000000
C       1.336263000000000      1.784517000000000      2.247204000000000
C       0.745066000000000      2.758648000000000      1.504200000000000
C       0.582092000000000      0.970039000000000      3.088408000000000
C      -1.151424000000000      3.806722000000000      0.467017000000000
C      -2.494287000000000      3.178601000000000     -0.109082000000000
C      -0.626761000000000      2.919983000000000      1.530169000000000
C      -3.987136000000000      1.095285000000000     -0.154296000000000
C      -4.267522000000000     -0.358928000000000      0.398906000000000
C      -3.664643000000000     -0.706406000000000      1.833160000000000
C      -3.437804000000000      2.233485000000000      0.826748000000000
C      -1.779122000000000      0.124987000000000      3.576128000000000
C      -0.764118000000000      1.129256000000000      3.128056000000000
C      -1.374899000000000      2.078807000000000      2.301927000000000
C      -2.869684000000000      0.382676000000000      2.479368000000000
C      -2.682970000000000      1.596445000000000      1.935069000000000
O       2.938924000000000     -2.681429000000000     -2.925776000000000
H       3.874789000000000     -2.823413000000000     -2.711668000000000
O       0.674409000000000     -4.305879000000000     -2.629443000000000
H       1.552209000000000     -4.075459000000000     -2.977824000000000
O      -1.086822000000000     -1.293938000000000     -4.780296000000000
H      -1.663064000000000     -2.044891000000000     -4.997480000000000
O       3.770545000000000     -0.190470000000000     -3.153963000000000
H       3.569005000000000     -0.419489000000000     -4.077860000000000
O      -2.609158000000000     -2.988256000000000     -3.696659000000000
H      -2.579286000000000     -3.918577000000000     -3.378457000000000
O      -1.797501000000000     -4.513272000000000     -1.964497000000000
H      -1.055135000000000     -5.135872000000000     -1.936017000000000
O       1.758286000000000     -0.395155000000000     -4.678777000000000
H       0.995713000000000     -0.268935000000000     -5.264167000000000
O       0.766146000000000     -5.088260000000000     -0.155564000000000
H       1.683033000000000     -5.343734000000000      0.045058000000000
O       0.654390000000000      1.838474000000000     -4.681957000000000
H       1.446384000000000      2.393494000000000     -4.795020000000000
O       2.163882000000000      3.292755000000000     -3.186392000000000
H       1.629923000000000      4.080967000000000     -3.416581000000000
O       4.722879000000000     -1.287731000000000      0.969422000000000
H       5.376637000000000     -0.804610000000000      0.422637000000000
O       4.879311000000000      0.516834000000000     -0.776811000000000
H       4.824043000000000      0.332373000000000     -1.730374000000000
O       1.328489000000000     -3.745994000000000      3.195736000000000
H       1.095182000000000     -3.718448000000000      4.139781000000000
O       0.738390000000000     -2.074334000000000      4.966131000000000
H       1.164564000000000     -1.389923000000000      5.521897000000000
O       1.815899000000000      0.145970000000000      4.952080000000000
H       2.788006000000000      0.114204000000000      4.940498000000000
O       3.769557000000000     -0.497254000000000      3.446090000000000
H       4.457899000000000     -0.796671000000000      2.825572000000000
O      -0.142264000000000      4.316202000000000     -2.883803000000000
H      -0.200118000000000      5.170976000000000     -2.421144000000000
O       0.316015000000000      5.371144000000000     -0.728557000000000
H       0.021023000000000      5.817298000000000      0.087839000000000
O       4.175511000000000     -2.914341000000000     -0.853556000000000
H       4.438461000000000     -3.385699000000000     -0.048555000000000
O       2.835502000000000     -4.114857000000000      0.875706000000000
H       2.505973000000000     -4.304711000000000      1.773252000000000
O      -1.459327000000000      5.070241000000000      0.988720000000000
H      -2.229684000000000      5.382840000000000      0.471099000000000
O      -3.280763000000000      4.251983000000000     -0.551900000000000
H      -4.087322000000000      4.244143000000000      0.001391000000000
O      -4.507762000000000      2.992543000000000      1.302278000000000
H      -5.280051000000000      2.719548000000000      0.760886000000000
O      -4.758686000000000     -2.537734000000000     -0.616476000000000
H      -5.238281000000000     -2.357191000000000     -1.445849000000000
O      -5.657498000000000     -0.461067000000000      0.459358000000000
H      -5.869268000000000     -1.254923000000000      0.973034000000000
O      -4.694595000000000     -1.251717000000000      2.618447000000000
H      -4.294183000000000     -1.633245000000000      3.410243000000000
O      -4.343757000000000     -1.394245000000000     -2.850044000000000
H      -4.106636000000000     -1.981737000000000     -3.591899000000000
O      -5.181764000000000      1.625030000000000     -0.685525000000000
H      -5.843503000000000      0.915158000000000     -0.693911000000000
O       1.967816000000000      4.694988000000000      1.043039000000000
H       2.625056000000000      5.033798000000000      0.409835000000000
O       3.485734000000000      3.657177000000000     -0.676900000000000
H       4.377043000000000      3.282137000000000     -0.588069000000000
O       4.666436000000000      2.190458000000000      0.957828000000000
H       4.786225000000000      2.308713000000000      1.919670000000000
O       3.507191000000000      2.084819000000000      3.145752000000000
H       3.136490000000000      2.973987000000000      3.227034000000000
O      -1.734405000000000     -2.049148000000000      4.640572000000000
H      -1.665536000000000     -1.551613000000000      5.467238000000000
O      -2.291510000000000      0.384004000000000      4.863833000000000
H      -2.636165000000000      1.284140000000000      4.881765000000000
