136

C      -2.417147000000000     -3.102003000000000      0.130364000000000
C      -1.159860000000000     -3.399608000000000     -0.804635000000000
C      -1.414049000000000     -2.608347000000000     -2.112771000000000
C      -3.170249000000000     -1.897101000000000     -0.599010000000000
C      -2.199000000000000     -1.421591000000000     -1.613661000000000
C      -3.869599000000000     -0.752174000000000      0.181461000000000
C      -3.398600000000000     -0.501706000000000      1.655756000000000
C      -2.074216000000000     -2.971561000000000      1.670793000000000
C      -2.523094000000000     -1.601680000000000      2.381086000000000
C      -0.513557000000000     -3.152669000000000      2.150838000000000
C       0.173809000000000     -3.051707000000000     -0.241085000000000
C       0.548031000000000     -3.580970000000000      1.105539000000000
C       1.227354000000000     -2.689661000000000     -0.956132000000000
C      -0.159056000000000     -2.212364000000000     -2.995617000000000
C       1.280686000000000     -2.520081000000000     -2.425787000000000
C      -0.118499000000000     -0.723323000000000     -3.058076000000000
C      -2.571471000000000     -0.369166000000000     -2.604631000000000
C      -1.194041000000000      0.114768000000000     -2.914088000000000
C      -3.705031000000000      0.712174000000000     -0.505357000000000
C      -3.302837000000000      0.885642000000000     -1.999583000000000
C      -2.675218000000000      0.832387000000000      1.589169000000000
C      -2.773433000000000      1.441487000000000      0.423249000000000
C      -2.058207000000000      1.403755000000000      2.829012000000000
C      -1.232823000000000     -0.965134000000000      2.773048000000000
C      -0.151481000000000     -1.799660000000000      2.630579000000000
C      -1.033991000000000      0.352798000000000      3.100764000000000
C       1.117604000000000     -1.302830000000000      2.740502000000000
C       2.099336000000000     -3.130447000000000      1.290807000000000
C       2.518748000000000     -2.811022000000000     -0.219294000000000
C       2.374330000000000     -2.007422000000000      2.364709000000000
C       3.439791000000000     -1.586293000000000     -0.455276000000000
C       2.193053000000000     -1.289791000000000     -2.840235000000000
C       1.159140000000000     -0.221624000000000     -2.919866000000000
C       3.386169000000000     -0.879321000000000     -1.894610000000000
C       1.334545000000000      1.106136000000000     -2.670379000000000
C      -1.017478000000000      1.445460000000000     -2.598437000000000
C      -2.298307000000000      2.138519000000000     -2.273829000000000
C       0.250894000000000      1.945368000000000     -2.515256000000000
C      -2.496758000000000      2.900208000000000      0.263498000000000
C      -2.046811000000000      3.279609000000000     -1.203564000000000
C      -1.219692000000000      2.734429000000000      2.641969000000000
C      -1.356104000000000      3.400942000000000      1.213161000000000
C       0.241549000000000      0.857775000000000      3.233965000000000
C       1.324066000000000      0.030432000000000      3.041425000000000
C       0.280530000000000      2.350964000000000      3.054858000000000
C       3.280926000000000     -0.759194000000000      1.954181000000000
C       3.169309000000000     -0.474628000000000      0.506360000000000
C       2.745177000000000      0.447962000000000      2.805702000000000
C       3.484745000000000      0.692731000000000     -1.516695000000000
C       2.629288000000000      1.727092000000000     -2.320009000000000
C       3.182758000000000      0.723738000000000     -0.051693000000000
C       0.619622000000000      3.303343000000000     -2.051802000000000
C      -0.477080000000000      3.769920000000000     -1.039146000000000
C      -0.166815000000000      3.292400000000000      0.325505000000000
C       2.171047000000000      3.075435000000000     -1.564805000000000
C       1.309989000000000      2.416274000000000      1.987274000000000
C       2.719096000000000      1.908720000000000      2.146423000000000
C       3.264799000000000      2.020600000000000      0.665569000000000
C       1.060005000000000      2.889516000000000      0.727320000000000
C       2.343126000000000      3.093237000000000     -0.023199000000000
O      -3.254776000000000     -4.214777000000000     -0.040490000000000
H      -3.443587000000000     -4.565345000000000      0.854151000000000
O      -5.238939000000000     -1.014251000000000      0.251819000000000
H      -5.435427000000000     -1.721145000000000     -0.389639000000000
O      -3.266725000000000     -0.916366000000000     -3.704005000000000
H      -4.065308000000000     -0.383284000000000     -3.839707000000000
O      -1.078361000000000     -4.785987000000000     -1.049502000000000
H      -1.998751000000000     -5.096434000000000     -1.147621000000000
O      -4.465660000000000      1.093878000000000     -2.757603000000000
H      -5.154605000000000      1.369371000000000     -2.115448000000000
O      -4.972679000000000      1.346087000000000     -0.370457000000000
H      -5.536572000000000      0.701745000000000      0.114321000000000
O      -2.262825000000000     -3.433289000000000     -2.903716000000000
H      -2.398684000000000     -2.963514000000000     -3.744005000000000
O      -4.573847000000000     -0.285155000000000      2.385444000000000
H      -4.331437000000000      0.152711000000000      3.217717000000000
O      -3.655582000000000      3.602534000000000      0.639508000000000
H      -4.421531000000000      3.184907000000000      0.218844000000000
O      -3.028322000000000      1.544865000000000      3.832020000000000
H      -2.965443000000000      2.472267000000000      4.133747000000000
O      -0.289053000000000     -2.775668000000000     -4.265645000000000
H      -0.020921000000000     -3.705464000000000     -4.202588000000000
O      -3.234548000000000     -1.959595000000000      3.554268000000000
H      -2.603133000000000     -2.060254000000000      4.278990000000000
O      -2.773204000000000     -4.013224000000000      2.295542000000000
H      -3.308601000000000     -3.605294000000000      3.009487000000000
O       1.806286000000000     -3.691639000000000     -2.999245000000000
H       2.244145000000000     -3.376500000000000     -3.821576000000000
O       2.684534000000000     -1.612530000000000     -4.118351000000000
H       3.632705000000000     -1.390944000000000     -4.128043000000000
O       4.544877000000000     -1.239494000000000     -2.589204000000000
H       5.256315000000000     -0.651923000000000     -2.280222000000000
O      -1.715122000000000      3.652480000000000      3.573335000000000
H      -0.966188000000000      3.918833000000000      4.137335000000000
O      -1.553630000000000      4.788359000000000      1.392127000000000
H      -2.501885000000000      4.917236000000000      1.558991000000000
O       3.317239000000000      2.072313000000000     -3.486714000000000
H       4.259706000000000      2.138069000000000     -3.259813000000000
O       2.936094000000000      4.125974000000000     -2.073216000000000
H       2.509280000000000      4.374602000000000     -2.917420000000000
O       2.837687000000000      4.349520000000000      0.384713000000000
H       3.045838000000000      4.846907000000000     -0.426798000000000
O       4.603047000000000      2.441046000000000      0.649766000000000
H       4.598374000000000      3.327170000000000      1.053652000000000
O       3.432987000000000      2.785214000000000      2.978199000000000
H       3.874602000000000      2.226774000000000      3.650818000000000
O       3.482598000000000      0.531890000000000      3.994037000000000
H       4.145282000000000     -0.178099000000000      3.971277000000000
O       2.838864000000000     -4.228161000000000      1.723920000000000
H       2.421770000000000     -5.025928000000000      1.357984000000000
O       3.214052000000000     -3.950685000000000     -0.694489000000000
H       2.892581000000000     -4.147895000000000     -1.594690000000000
O       0.558293000000000     -4.998011000000000      1.057868000000000
H       0.007085000000000     -5.272132000000000      0.297312000000000
O      -0.498859000000000     -4.037377000000000      3.230278000000000
H      -0.295630000000000     -4.920342000000000      2.881000000000000
O       4.765891000000000     -2.009895000000000     -0.218674000000000
H       4.791353000000000     -2.959238000000000     -0.450284000000000
O       2.937468000000000     -2.558767000000000      3.521537000000000
H       3.268738000000000     -3.443159000000000      3.294508000000000
O       4.619369000000000     -0.977805000000000      2.303296000000000
H       5.039821000000000     -1.472184000000000      1.577532000000000
O       4.847918000000000      1.055988000000000     -1.686228000000000
H       5.102797000000000      1.614057000000000     -0.927384000000000
O      -2.794205000000000      4.393931000000000     -1.557786000000000
H      -2.827403000000000      4.414816000000000     -2.530775000000000
O       0.649363000000000      3.097196000000000      4.189736000000000
H       1.590145000000000      3.316776000000000      4.112490000000000
O      -2.753801000000000      2.794084000000000     -3.437967000000000
H      -3.596321000000000      2.377783000000000     -3.695311000000000
O       0.664322000000000      4.206736000000000     -3.123284000000000
H       0.268508000000000      5.035500000000000     -2.801059000000000
O      -4.238792000000000     -2.466243000000000     -1.360622000000000
H      -3.847577000000000     -3.121326000000000     -1.970666000000000
O      -0.474664000000000      5.174961000000000     -1.109284000000000
H      -0.978510000000000      5.501334000000000     -0.342672000000000
