136

C      -3.770413000000000      0.991210000000000      0.490920000000000
C      -3.249041000000000      0.418814000000000      1.915182000000000
C      -3.091685000000000     -1.124897000000000      1.708466000000000
C      -3.723131000000000     -0.261512000000000     -0.459363000000000
C      -2.831045000000000     -1.243381000000000      0.226223000000000
C      -3.461934000000000     -0.029461000000000     -1.980672000000000
C      -2.705631000000000      1.289776000000000     -2.441711000000000
C      -3.010733000000000      2.310637000000000      0.040443000000000
C      -2.669477000000000      2.539777000000000     -1.507834000000000
C      -1.708845000000000      2.485678000000000      0.725568000000000
C      -1.952932000000000      0.975617000000000      2.410124000000000
C      -1.584681000000000      2.425912000000000      2.189102000000000
C      -1.000436000000000      0.317465000000000      3.054030000000000
C      -2.021948000000000     -1.920051000000000      2.559249000000000
C      -1.013891000000000     -1.112005000000000      3.461350000000000
C      -1.107322000000000     -2.661238000000000      1.625556000000000
C      -2.692629000000000     -2.610213000000000     -0.359097000000000
C      -1.545901000000000     -3.371848000000000      0.385154000000000
C      -2.594313000000000     -1.228116000000000     -2.645309000000000
C      -2.241094000000000     -2.559212000000000     -1.863619000000000
C      -1.344198000000000      0.801787000000000     -2.773526000000000
C      -1.287919000000000     -0.560482000000000     -2.947168000000000
C      -0.211220000000000      1.555400000000000     -2.873629000000000
C      -1.224232000000000      3.257121000000000     -1.456965000000000
C      -0.704618000000000      2.857047000000000     -0.117634000000000
C      -0.127213000000000      2.992406000000000     -2.524506000000000
C       0.559709000000000      3.085651000000000      0.298376000000000
C      -0.118845000000000      2.588181000000000      2.767364000000000
C       0.195117000000000      1.182056000000000      3.376080000000000
C       0.957594000000000      3.132980000000000      1.735195000000000
C       1.348267000000000      0.494590000000000      2.744260000000000
C       0.393624000000000     -1.843762000000000      3.259694000000000
C       0.164043000000000     -2.628933000000000      1.997178000000000
C       1.642958000000000     -0.899870000000000      3.194264000000000
C       1.328448000000000     -3.228814000000000      1.267845000000000
C      -0.386381000000000     -3.265129000000000     -0.561891000000000
C      -0.739273000000000     -2.812567000000000     -1.744622000000000
C       0.975950000000000     -3.724814000000000     -0.183644000000000
C      -0.065373000000000     -1.159159000000000     -3.155866000000000
C       0.192305000000000     -2.607639000000000     -2.889579000000000
C       1.012619000000000      0.956411000000000     -3.063303000000000
C       1.091092000000000     -0.410027000000000     -3.151773000000000
C       1.428989000000000      3.167362000000000     -2.116078000000000
C       1.701649000000000      3.426304000000000     -0.586395000000000
C       2.145444000000000      1.855320000000000     -2.691728000000000
C       2.384202000000000      2.471192000000000      1.657748000000000
C       2.306426000000000      1.023107000000000      2.005416000000000
C       2.874184000000000      2.645676000000000      0.147614000000000
C       2.789742000000000     -1.324826000000000      2.199571000000000
C       2.253623000000000     -2.070048000000000      1.032502000000000
C       3.428849000000000      0.039502000000000      1.747582000000000
C       2.107269000000000     -3.081264000000000     -1.082201000000000
C       1.748475000000000     -2.677608000000000     -2.560063000000000
C       2.331318000000000     -1.234666000000000     -3.009326000000000
C       2.605426000000000     -1.934921000000000     -0.234694000000000
C       2.845687000000000      0.978896000000000     -1.692819000000000
C       3.140796000000000      1.293232000000000     -0.442866000000000
C       3.909276000000000      0.185342000000000      0.256941000000000
C       3.340669000000000     -0.408632000000000     -2.094181000000000
C       3.689569000000000     -1.036508000000000     -0.713261000000000
O      -5.107510000000000      1.362332000000000      0.635176000000000
H      -5.317397000000000      1.266196000000000      1.589663000000000
O      -4.699340000000000      0.021120000000000     -2.630139000000000
H      -5.360344000000000     -0.303159000000000     -1.978369000000000
O      -3.915654000000000     -3.301335000000000     -0.237414000000000
H      -3.693064000000000     -4.242579000000000     -0.140035000000000
O      -4.243873000000000      0.673097000000000      2.868987000000000
H      -4.726599000000000     -0.174759000000000      2.971666000000000
O      -2.771949000000000     -3.662878000000000     -2.551767000000000
H      -3.333106000000000     -3.301009000000000     -3.265904000000000
O      -3.255341000000000     -1.613300000000000     -3.823566000000000
H      -4.006715000000000     -0.997480000000000     -3.934269000000000
O      -4.360306000000000     -1.673473000000000      2.023809000000000
H      -4.189362000000000     -2.517530000000000      2.489686000000000
O      -3.232721000000000      1.685857000000000     -3.684829000000000
H      -4.138841000000000      1.996607000000000     -3.544624000000000
O      -3.612812000000000      3.418155000000000     -2.032835000000000
H      -3.476348000000000      4.277815000000000     -1.606289000000000
O      -3.810659000000000      3.402586000000000      0.460716000000000
H      -4.739695000000000      3.108716000000000      0.359326000000000
O      -2.698979000000000     -2.839800000000000      3.375982000000000
H      -2.621508000000000     -2.494185000000000      4.289568000000000
O      -1.401266000000000     -1.220515000000000      4.801034000000000
H      -0.786920000000000     -1.878329000000000      5.196400000000000
O       0.565961000000000     -2.716208000000000      4.347879000000000
H       1.380788000000000     -2.423483000000000      4.807679000000000
O       2.210060000000000     -0.848595000000000      4.490582000000000
H       1.793444000000000     -0.102423000000000      4.958390000000000
O       3.256718000000000      3.130515000000000      2.527114000000000
H       4.040780000000000      3.374408000000000      1.995386000000000
O       0.446919000000000      1.255238000000000      4.760767000000000
H       0.240959000000000      2.173150000000000      5.021974000000000
O      -0.159194000000000      3.496899000000000      3.832586000000000
H      -1.051845000000000      3.891247000000000      3.830953000000000
O       1.160074000000000      4.507031000000000      2.028729000000000
H       1.703245000000000      4.540366000000000      2.834206000000000
O       5.276929000000000      0.503785000000000      0.269183000000000
H       5.754006000000000     -0.315739000000000      0.041254000000000
O       4.494835000000000      0.293074000000000      2.619196000000000
H       5.209274000000000      0.681613000000000      2.077353000000000
O       3.721605000000000     -2.152520000000000      2.832014000000000
H       4.270254000000000     -1.570010000000000      3.384842000000000
O       4.874919000000000     -1.790727000000000     -0.827734000000000
H       5.287720000000000     -1.490586000000000     -1.665426000000000
O       4.562469000000000     -0.274714000000000     -2.775476000000000
H       4.347175000000000     -0.134787000000000     -3.713419000000000
O       2.947193000000000     -1.389575000000000     -4.258460000000000
H       3.045674000000000     -2.354596000000000     -4.396880000000000
O       4.041558000000000      3.414420000000000      0.128312000000000
H       3.796657000000000      4.276903000000000     -0.264951000000000
O       3.001652000000000      2.176743000000000     -3.745856000000000
H       3.139901000000000      3.141590000000000     -3.705514000000000
O       1.964308000000000      4.258776000000000     -2.802615000000000
H       1.318730000000000      4.523062000000000     -3.480344000000000
O      -0.340682000000000      3.835365000000000     -3.637070000000000
H      -1.207491000000000      3.625324000000000     -4.008719000000000
O      -1.937297000000000     -4.701670000000000      0.608477000000000
H      -1.138092000000000     -5.248217000000000      0.609686000000000
O      -0.090588000000000     -3.498155000000000     -3.942172000000000
H      -0.991982000000000     -3.831879000000000     -3.816901000000000
O       0.957337000000000     -5.114963000000000     -0.263754000000000
H       1.863797000000000     -5.422715000000000     -0.109910000000000
O       1.950400000000000     -4.267615000000000      1.972191000000000
H       2.612032000000000     -3.882319000000000      2.565978000000000
O      -1.511681000000000      4.641096000000000     -1.415297000000000
H      -0.681207000000000      5.132310000000000     -1.383005000000000
O      -2.437337000000000      3.331240000000000      2.843539000000000
H      -3.115828000000000      3.616352000000000      2.203536000000000
O       2.336273000000000     -3.629704000000000     -3.397332000000000
H       1.612735000000000     -4.072828000000000     -3.878395000000000
O      -5.043996000000000     -0.818320000000000     -0.392030000000000
H      -4.980276000000000     -1.773245000000000     -0.210134000000000
O       3.126779000000000     -4.054642000000000     -1.106629000000000
H       3.979216000000000     -3.613925000000000     -1.237214000000000
O       2.004472000000000      4.806661000000000     -0.480989000000000
H       1.764222000000000      5.080756000000000      0.428250000000000
