140

C      -3.755880000000000     -0.766393000000000      0.342976000000000
C      -3.034937000000000     -2.143281000000000      0.852990000000000
C      -2.304505000000000     -2.683502000000000     -0.406610000000000
C      -3.447281000000000     -0.716097000000000     -1.195236000000000
C      -2.229703000000000     -1.545902000000000     -1.370791000000000
C      -3.427548000000000      0.668995000000000     -1.905605000000000
C      -3.158372000000000      1.990913000000000     -1.048660000000000
C      -3.419346000000000      0.494767000000000      1.187852000000000
C      -3.382247000000000      1.919133000000000      0.511455000000000
C      -2.141985000000000      0.443745000000000      1.969585000000000
C      -2.113136000000000     -2.041395000000000      2.123983000000000
C      -1.593052000000000     -0.668087000000000      2.390770000000000
C      -0.789472000000000     -2.905505000000000      2.232878000000000
C      -0.888287000000000     -3.068191000000000     -0.239818000000000
C      -0.211989000000000     -3.148329000000000      0.886406000000000
C      -0.126464000000000     -3.541843000000000     -1.448707000000000
C      -1.792147000000000     -1.915042000000000     -2.741274000000000
C      -0.407458000000000     -2.699639000000000     -2.728892000000000
C      -2.302909000000000      0.708510000000000     -3.057115000000000
C      -1.536433000000000     -0.600583000000000     -3.549790000000000
C      -1.794413000000000      2.421902000000000     -1.482230000000000
C      -1.329140000000000      1.719704000000000     -2.515638000000000
C      -1.093336000000000      3.566681000000000     -0.857152000000000
C      -2.261645000000000      2.734700000000000      1.351610000000000
C      -1.870302000000000      1.793964000000000      2.554573000000000
C      -1.040631000000000      3.105911000000000      0.578842000000000
C      -0.469795000000000      1.945470000000000      3.247480000000000
C      -0.593557000000000     -0.724263000000000      3.496353000000000
C       0.176902000000000     -2.075007000000000      3.232676000000000
C       0.244085000000000      0.557165000000000      3.648430000000000
C       1.668787000000000     -1.997127000000000      2.704842000000000
C       1.233922000000000     -3.484256000000000      0.644987000000000
C       1.386056000000000     -3.633277000000000     -0.919876000000000
C       1.892298000000000     -2.302774000000000      1.245035000000000
C       2.444843000000000     -2.652204000000000     -1.595410000000000
C       0.571821000000000     -1.594396000000000     -2.895644000000000
C      -0.042724000000000     -0.444164000000000     -3.407568000000000
C       1.829824000000000     -1.579492000000000     -2.435525000000000
C       0.005538000000000      1.858453000000000     -2.910578000000000
C       0.659119000000000      0.738872000000000     -3.345030000000000
C       0.429251000000000      3.819926000000000     -1.274871000000000
C       0.932700000000000      2.961369000000000     -2.509623000000000
C       0.189412000000000      3.104659000000000      1.053112000000000
C       0.630137000000000      2.683199000000000      2.406077000000000
C       1.217658000000000      3.681156000000000      0.119192000000000
C       1.472874000000000      0.518988000000000      2.787238000000000
C       2.425639000000000     -0.619641000000000      2.852928000000000
C       1.692499000000000      1.655632000000000      2.154950000000000
C       2.816797000000000     -1.552517000000000      0.678520000000000
C       3.402819000000000     -1.816348000000000     -0.667256000000000
C       3.422580000000000     -0.563585000000000      1.641940000000000
C       2.823551000000000     -0.483492000000000     -2.732074000000000
C       2.158879000000000      0.871782000000000     -3.256258000000000
C       2.299800000000000      2.162679000000000     -2.355981000000000
C       3.631758000000000     -0.424435000000000     -1.407009000000000
C       2.547715000000000      2.868396000000000      0.090805000000000
C       2.906571000000000      2.062637000000000      1.405528000000000
C       3.658208000000000      0.800313000000000      0.892817000000000
C       2.570151000000000      1.795176000000000     -0.948471000000000
C       3.165873000000000      0.687740000000000     -0.533933000000000
O      -5.139523000000000     -0.915059000000000      0.495869000000000
H      -5.443739000000000     -1.525573000000000     -0.195118000000000
O      -4.675504000000000      0.883965000000000     -2.502288000000000
H      -5.123135000000000      0.013477000000000     -2.531465000000000
O      -2.771854000000000     -2.703611000000000     -3.399566000000000
H      -2.615995000000000     -2.564617000000000     -4.351930000000000
O      -4.070196000000000     -3.021583000000000      1.200653000000000
H      -4.087735000000000     -3.718094000000000      0.516965000000000
O      -1.871440000000000     -0.862259000000000     -4.886667000000000
H      -2.227132000000000     -0.031290000000000     -5.253080000000000
O      -2.892766000000000      1.269828000000000     -4.205348000000000
H      -3.812248000000000      1.498621000000000     -3.962801000000000
O      -3.063178000000000     -3.792028000000000     -0.902501000000000
H      -2.454488000000000     -4.407808000000000     -1.337228000000000
O      -3.993642000000000      3.014235000000000     -1.546807000000000
H      -4.879160000000000      2.882568000000000     -1.166667000000000
O      -1.051519000000000     -4.160630000000000      2.784041000000000
H      -1.605663000000000     -4.015733000000000      3.568760000000000
O       2.409289000000000     -2.973693000000000      3.418333000000000
H       2.935640000000000     -2.466890000000000      4.072725000000000
O       0.175433000000000     -2.736331000000000      4.462347000000000
H       0.889503000000000     -3.394819000000000      4.446684000000000
O      -2.890776000000000     -2.403937000000000      3.255845000000000
H      -3.731216000000000     -2.756197000000000      2.906686000000000
O       3.116881000000000     -0.625786000000000      4.072999000000000
H       4.059140000000000     -0.504885000000000      3.875450000000000
O       4.647557000000000     -1.055318000000000      2.129147000000000
H       5.165782000000000     -1.383730000000000      1.380368000000000
O       5.044356000000000      1.050932000000000      0.836140000000000
H       5.212644000000000      1.826153000000000      1.396264000000000
O       3.757483000000000      2.790422000000000      2.245141000000000
H       3.220179000000000      3.481952000000000      2.665355000000000
O      -4.394806000000000      0.551679000000000      2.219406000000000
H      -5.252509000000000      0.325643000000000      1.823912000000000
O      -4.623481000000000      2.517471000000000      0.757798000000000
H      -4.425953000000000      3.374357000000000      1.195711000000000
O       3.367093000000000      2.964485000000000     -2.775472000000000
H       3.154243000000000      3.227577000000000     -3.688319000000000
O       4.993102000000000     -0.245199000000000     -1.710184000000000
H       5.417342000000000      0.190578000000000     -0.953573000000000
O       3.606769000000000      3.769529000000000     -0.155158000000000
H       3.782253000000000      3.774603000000000     -1.113217000000000
O       1.500842000000000      4.968246000000000      0.584888000000000
H       2.446215000000000      5.134394000000000      0.414559000000000
O       2.689808000000000      1.193233000000000     -4.507093000000000
H       3.119709000000000      0.387377000000000     -4.849028000000000
O       3.673375000000000     -0.955285000000000     -3.754001000000000
H       4.584675000000000     -0.763351000000000     -3.471682000000000
O       1.094767000000000      3.789791000000000     -3.633228000000000
H       0.915817000000000      4.702072000000000     -3.336091000000000
O       0.556887000000000      5.151305000000000     -1.686547000000000
H      -0.133144000000000      5.664314000000000     -1.238410000000000
O      -0.316146000000000     -3.520910000000000     -3.859529000000000
H      -0.773414000000000     -4.350919000000000     -3.642619000000000
O       4.623608000000000     -2.462912000000000     -0.449020000000000
H       4.832514000000000     -2.957315000000000     -1.257558000000000
O       1.678570000000000     -4.674720000000000      1.249563000000000
H       1.965918000000000     -4.471166000000000      2.151941000000000
O      -0.591759000000000     -4.852383000000000     -1.729955000000000
H       0.190124000000000     -5.436454000000000     -1.637084000000000
O      -2.860256000000000      3.899391000000000      1.853327000000000
H      -2.954013000000000      3.751981000000000      2.819044000000000
O       1.823427000000000     -4.936142000000000     -1.198437000000000
H       2.102033000000000     -5.329968000000000     -0.350607000000000
O       1.193732000000000      3.749898000000000      3.124606000000000
H       0.553457000000000      3.962429000000000      3.830830000000000
O      -0.664824000000000      2.698337000000000      4.404264000000000
H      -0.227765000000000      2.197832000000000      5.126291000000000
O       0.651566000000000      0.669649000000000      4.987621000000000
H       0.115536000000000      0.036687000000000      5.498593000000000
O      -4.532224000000000     -1.454479000000000     -1.815755000000000
H      -4.136109000000000     -2.124503000000000     -2.412084000000000
O      -2.792662000000000      2.057867000000000      3.587874000000000
H      -3.608681000000000      1.555288000000000      3.402000000000000
O      -1.297620000000000     -0.817307000000000      4.715576000000000
H      -1.993605000000000     -1.486539000000000      4.617456000000000
O      -1.808519000000000      4.764907000000000     -1.026054000000000
H      -2.735463000000000      4.540374000000000     -1.208028000000000
O       3.327712000000000     -3.422145000000000     -2.383714000000000
H       2.825723000000000     -3.856611000000000     -3.083124000000000
