140

C       1.640504000000000     -2.427033000000000     -2.437505000000000
C       0.125679000000000     -3.045618000000000     -2.281514000000000
C       0.029965000000000     -3.434320000000000     -0.778360000000000
C       2.306455000000000     -2.652044000000000     -1.038379000000000
C       1.173724000000000     -2.789474000000000     -0.088419000000000
C       3.441103000000000     -1.696614000000000     -0.566623000000000
C       3.525007000000000     -0.252076000000000     -1.195982000000000
C       1.682457000000000     -0.984172000000000     -2.968226000000000
C       2.860748000000000     -0.015512000000000     -2.575937000000000
C       0.446225000000000     -0.189837000000000     -2.701731000000000
C      -1.085945000000000     -2.161098000000000     -2.788183000000000
C      -0.794289000000000     -0.719638000000000     -2.805091000000000
C      -2.448384000000000     -2.112587000000000     -1.939708000000000
C      -1.125546000000000     -2.891336000000000     -0.021335000000000
C      -2.169261000000000     -2.230492000000000     -0.488628000000000
C      -1.231678000000000     -3.242228000000000      1.430419000000000
C       1.415737000000000     -3.195955000000000      1.314296000000000
C       0.104777000000000     -3.093460000000000      2.215825000000000
C       3.385655000000000     -1.393135000000000      1.010130000000000
C       2.442850000000000     -2.217219000000000      1.970459000000000
C       3.055705000000000      0.667815000000000     -0.107414000000000
C       3.027637000000000      0.079542000000000      1.076687000000000
C       3.105783000000000      2.138571000000000     -0.332969000000000
C       2.169927000000000      1.440869000000000     -2.737046000000000
C       0.704635000000000      1.147846000000000     -2.779245000000000
C       2.341616000000000      2.546904000000000     -1.636964000000000
C      -0.357098000000000      2.155987000000000     -3.041745000000000
C      -2.017412000000000      0.076588000000000     -3.098022000000000
C      -3.139574000000000     -0.729408000000000     -2.272122000000000
C      -1.814436000000000      1.587466000000000     -2.843688000000000
C      -3.696366000000000      0.055216000000000     -1.023039000000000
C      -3.230345000000000     -2.024286000000000      0.565311000000000
C      -2.436982000000000     -2.326226000000000      1.901155000000000
C      -3.978380000000000     -0.647478000000000      0.394877000000000
C      -1.961711000000000     -1.077703000000000      2.537981000000000
C       0.295604000000000     -1.743418000000000      2.843537000000000
C       1.525192000000000     -1.270883000000000      2.715204000000000
C      -0.845139000000000     -1.089761000000000      3.547390000000000
C       2.928874000000000      0.799679000000000      2.385313000000000
C       1.914225000000000      0.051107000000000      3.302811000000000
C       2.371441000000000      2.916601000000000      0.809758000000000
C       2.342200000000000      2.254103000000000      2.230877000000000
C       0.975367000000000      2.947066000000000     -1.088697000000000
C      -0.190543000000000      3.301184000000000     -1.958741000000000
C       0.989302000000000      3.100387000000000      0.226970000000000
C      -2.097322000000000      1.955326000000000     -1.433969000000000
C      -2.872813000000000      1.246997000000000     -0.646342000000000
C      -1.528335000000000      3.319747000000000     -1.150384000000000
C      -3.640455000000000      0.462427000000000      1.483153000000000
C      -2.487585000000000      0.117210000000000      2.363654000000000
C      -3.290291000000000      1.767333000000000      0.697414000000000
C      -0.598283000000000      0.423944000000000      3.867466000000000
C       0.681513000000000      0.913056000000000      3.253866000000000
C       0.904725000000000      2.082202000000000      2.669397000000000
C      -1.838439000000000      1.166082000000000      3.238398000000000
C      -0.065689000000000      3.773731000000000      1.034539000000000
C      -1.486193000000000      3.645733000000000      0.390384000000000
C      -2.105266000000000      2.522299000000000      1.200306000000000
C      -0.184696000000000      3.093292000000000      2.449475000000000
C      -1.439710000000000      2.273559000000000      2.315105000000000
O       2.318167000000000     -3.176918000000000     -3.402524000000000
H       2.646660000000000     -3.983154000000000     -2.974954000000000
O       4.645336000000000     -2.366619000000000     -0.825833000000000
H       5.203783000000000     -1.759206000000000     -1.345227000000000
O       1.907074000000000     -4.527112000000000      1.357161000000000
H       2.165249000000000     -4.683027000000000      2.281940000000000
O       0.100420000000000     -4.208530000000000     -3.057267000000000
H       0.057615000000000     -4.957958000000000     -2.431842000000000
O       3.208959000000000     -2.960193000000000      2.876447000000000
H       4.104932000000000     -2.570696000000000      2.859243000000000
O       4.690443000000000     -1.531500000000000      1.512436000000000
H       5.209610000000000     -1.960873000000000      0.798856000000000
O       0.025806000000000     -4.858921000000000     -0.677348000000000
H       0.667003000000000     -5.121113000000000      0.003496000000000
O       4.913725000000000     -0.013577000000000     -1.337062000000000
H       5.075498000000000      0.942457000000000     -1.259328000000000
O       3.886887000000000     -0.138861000000000     -3.505193000000000
H       3.475756000000000     -0.404270000000000     -4.347272000000000
O       1.713335000000000     -1.033967000000000     -4.392869000000000
H       1.819156000000000     -1.967261000000000     -4.643344000000000
O      -3.264898000000000     -3.184771000000000     -2.283123000000000
H      -3.887443000000000     -2.864330000000000     -2.958961000000000
O      -1.450363000000000     -2.590520000000000     -4.080044000000000
H      -1.149607000000000     -3.515818000000000     -4.152196000000000
O      -5.350678000000000     -0.921872000000000      0.448995000000000
H      -5.711490000000000     -0.464499000000000      1.228330000000000
O      -4.162030000000000     -3.076446000000000      0.458953000000000
H      -5.011781000000000     -2.680046000000000      0.191481000000000
O       0.158625000000000     -4.053641000000000      3.236826000000000
H      -0.368802000000000     -4.814266000000000      2.941675000000000
O      -1.610847000000000     -4.598592000000000      1.555681000000000
H      -2.276104000000000     -4.790281000000000      0.881899000000000
O      -3.234774000000000     -2.997472000000000      2.831177000000000
H      -3.887626000000000     -3.506160000000000      2.317259000000000
O      -4.782507000000000      0.633317000000000      2.286064000000000
H      -4.524506000000000      1.154041000000000      3.060940000000000
O       4.452174000000000      2.512662000000000     -0.429147000000000
H       4.449428000000000      3.411269000000000     -0.805951000000000
O       4.191550000000000      0.884345000000000      2.986876000000000
H       4.152804000000000      0.367196000000000      3.808966000000000
O       2.918822000000000      4.212448000000000      0.920467000000000
H       3.322429000000000      4.254197000000000      1.813874000000000
O       3.028629000000000      3.096351000000000      3.120969000000000
H       3.835595000000000      2.600068000000000      3.377243000000000
O      -2.742122000000000      1.596885000000000      4.224224000000000
H      -2.225217000000000      2.058014000000000      4.901861000000000
O      -0.514368000000000      0.636223000000000      5.250000000000000
H      -1.005668000000000     -0.087535000000000      5.675153000000000
O      -1.197052000000000     -1.742248000000000      4.741466000000000
H      -1.502379000000000     -2.632917000000000      4.520744000000000
O       2.458319000000000     -0.071270000000000      4.596984000000000
H       1.732284000000000     -0.042373000000000      5.234373000000000
O      -0.257930000000000      4.034584000000000      3.478123000000000
H      -0.015023000000000      4.895917000000000      3.096737000000000
O      -4.449521000000000      2.565143000000000      0.584808000000000
H      -4.171714000000000      3.471499000000000      0.389764000000000
O      -2.399966000000000      4.233398000000000     -1.786782000000000
H      -1.862296000000000      5.008113000000000     -2.027689000000000
O      -2.229293000000000      4.813638000000000      0.625555000000000
H      -1.601420000000000      5.545963000000000      0.724463000000000
O       0.269212000000000      5.137254000000000      1.179166000000000
H       1.225946000000000      5.222256000000000      1.005141000000000
O       0.001281000000000      4.544600000000000     -2.572619000000000
H       0.200241000000000      4.358801000000000     -3.510894000000000
O      -0.215660000000000      2.694204000000000     -4.330571000000000
H      -1.097010000000000      2.610663000000000     -4.748796000000000
O       2.984503000000000      3.676774000000000     -2.155503000000000
H       3.064258000000000      3.545382000000000     -3.116414000000000
O      -2.291914000000000     -0.031053000000000     -4.468573000000000
H      -2.272429000000000     -0.972474000000000     -4.708803000000000
O       2.861604000000000     -3.968028000000000     -1.152997000000000
H       3.125300000000000     -4.276423000000000     -0.273546000000000
O      -4.187724000000000     -1.034321000000000     -3.136771000000000
H      -4.822713000000000     -0.302779000000000     -3.104618000000000
O      -2.664125000000000      2.297263000000000     -3.714277000000000
H      -2.924873000000000      3.121984000000000     -3.263173000000000
O      -4.924361000000000      0.597104000000000     -1.472577000000000
H      -5.248223000000000      1.222253000000000     -0.803836000000000
O       2.613527000000000      2.011080000000000     -3.948510000000000
H       2.147859000000000      1.579475000000000     -4.675778000000000
