144

C       3.379073000000000      1.927980000000000     -0.234373000000000
C       3.108615000000000      1.832289000000000      1.376329000000000
C       1.797685000000000      2.639469000000000      1.592974000000000
C       2.247202000000000      2.895725000000000     -0.749838000000000
C       1.161944000000000      2.790862000000000      0.247305000000000
C       1.763917000000000      2.778981000000000     -2.212703000000000
C       1.974139000000000      1.379756000000000     -2.941141000000000
C       3.560362000000000      0.552255000000000     -0.946149000000000
C       3.074167000000000      0.366244000000000     -2.433275000000000
C       2.976512000000000     -0.636991000000000     -0.242110000000000
C       3.086528000000000      0.392505000000000      2.017543000000000
C       2.787276000000000     -0.700904000000000      1.050873000000000
C       2.080592000000000      0.051937000000000      3.197282000000000
C       0.745126000000000      1.986484000000000      2.392076000000000
C       0.841735000000000      0.861522000000000      3.067857000000000
C      -0.567092000000000      2.703837000000000      2.559546000000000
C       0.023081000000000      3.746142000000000      0.192194000000000
C      -1.077782000000000      3.358247000000000      1.244901000000000
C       0.161924000000000      3.059023000000000     -2.351023000000000
C      -0.689043000000000      3.736111000000000     -1.213669000000000
C       0.614388000000000      0.808630000000000     -2.951850000000000
C      -0.391260000000000      1.701191000000000     -2.647101000000000
C       0.308058000000000     -0.529555000000000     -3.063049000000000
C       2.642031000000000     -1.204848000000000     -2.511219000000000
C       3.063490000000000     -1.832494000000000     -1.136408000000000
C       1.204181000000000     -1.468996000000000     -2.737657000000000
C       2.312485000000000     -3.119035000000000     -0.648860000000000
C       2.601983000000000     -1.984889000000000      1.784363000000000
C       1.839921000000000     -1.547940000000000      3.104264000000000
C       1.970833000000000     -3.097812000000000      0.926227000000000
C       0.314552000000000     -1.945198000000000      3.244746000000000
C      -0.473788000000000      0.469650000000000      3.677715000000000
C      -1.489738000000000      1.603711000000000      3.266309000000000
C      -0.698429000000000     -0.844083000000000      3.038201000000000
C      -2.723747000000000      1.126473000000000      2.409055000000000
C      -1.964336000000000      2.475224000000000      0.442659000000000
C      -2.128363000000000      3.054791000000000     -0.924229000000000
C      -2.682897000000000      1.506722000000000      0.954924000000000
C      -1.670772000000000      1.275529000000000     -2.607328000000000
C      -2.741956000000000      2.044143000000000     -1.933386000000000
C      -1.024045000000000     -1.061855000000000     -3.498030000000000
C      -2.179429000000000     -0.034765000000000     -3.161170000000000
C       0.581122000000000     -2.813980000000000     -2.661270000000000
C       0.898992000000000     -3.476753000000000     -1.297346000000000
C      -0.987253000000000     -2.557046000000000     -2.932660000000000
C       0.476760000000000     -3.013946000000000      0.967299000000000
C      -0.228352000000000     -3.045258000000000      2.274415000000000
C      -0.088712000000000     -3.177944000000000     -0.215505000000000
C      -1.802384000000000     -1.244559000000000      2.437519000000000
C      -3.037850000000000     -0.414899000000000      2.324727000000000
C      -1.753254000000000     -2.712751000000000      2.093817000000000
C      -3.766163000000000      0.773219000000000      0.220439000000000
C      -3.683429000000000      0.868345000000000     -1.346943000000000
C      -3.189836000000000     -0.461195000000000     -2.066702000000000
C      -3.688189000000000     -0.636227000000000      0.887419000000000
C      -2.008308000000000     -2.744303000000000     -1.749720000000000
C      -1.519460000000000     -3.482892000000000     -0.455464000000000
C      -2.410073000000000     -2.908800000000000      0.684541000000000
C      -2.555051000000000     -1.461673000000000     -1.170428000000000
C      -2.817700000000000     -1.568420000000000      0.120698000000000
O       4.604885000000000      2.572499000000000     -0.433462000000000
H       4.472154000000000      3.514717000000000     -0.237741000000000
O       2.437295000000000      3.713975000000000     -3.000320000000000
H       2.812401000000000      4.379324000000000     -2.391526000000000
O       0.499100000000000      5.059216000000000      0.464868000000000
H      -0.073456000000000      5.667680000000000     -0.036837000000000
O       4.172377000000000      2.504507000000000      1.991601000000000
H       3.804497000000000      3.320219000000000      2.379853000000000
O      -0.920295000000000      5.070744000000000     -1.560779000000000
H      -0.841216000000000      5.118125000000000     -2.532391000000000
O      -0.015088000000000      3.860329000000000     -3.497224000000000
H       0.821992000000000      3.838380000000000     -3.994779000000000
O       2.159319000000000      3.890427000000000      2.184927000000000
H       1.406561000000000      4.213519000000000      2.702687000000000
O       2.238005000000000      1.657571000000000     -4.294987000000000
H       3.192681000000000      1.826345000000000     -4.371670000000000
O       2.633774000000000      0.366754000000000      4.437096000000000
H       3.237971000000000     -0.359253000000000      4.672398000000000
O       0.127124000000000     -2.392921000000000      4.583029000000000
H      -0.202450000000000     -3.307699000000000      4.524820000000000
O       2.548658000000000     -2.128779000000000      4.159016000000000
H       1.893597000000000     -2.424468000000000      4.818666000000000
O       4.382044000000000      0.115972000000000      2.517239000000000
H       4.835701000000000      0.976990000000000      2.586160000000000
O      -0.043324000000000     -4.278273000000000      2.914458000000000
H      -0.393768000000000     -4.983380000000000      2.359207000000000
O      -2.428932000000000     -3.460624000000000      3.069013000000000
H      -3.311609000000000     -3.083622000000000      3.188133000000000
O      -3.580047000000000     -3.679920000000000      0.826984000000000
H      -3.403981000000000     -4.542871000000000      0.420250000000000
O      -1.715839000000000     -4.868327000000000     -0.510726000000000
H      -0.955016000000000     -5.253555000000000     -0.984065000000000
O       4.950866000000000      0.267535000000000     -0.924405000000000
H       5.423332000000000      1.107909000000000     -1.045385000000000
O       4.186594000000000      0.537938000000000     -3.263150000000000
H       4.221816000000000     -0.240592000000000     -3.852813000000000
O      -4.292345000000000     -1.126364000000000     -2.634321000000000
H      -5.005142000000000     -0.459049000000000     -2.703947000000000
O      -4.985918000000000     -1.160213000000000      0.976118000000000
H      -4.917603000000000     -2.119853000000000      1.093584000000000
O      -3.103212000000000     -3.491960000000000     -2.247116000000000
H      -3.798891000000000     -2.863138000000000     -2.518724000000000
O      -1.349472000000000     -3.421891000000000     -3.963222000000000
H      -2.181052000000000     -3.860707000000000     -3.682179000000000
O      -4.980950000000000      1.104191000000000     -1.805555000000000
H      -4.885647000000000      1.783168000000000     -2.513065000000000
O      -4.974186000000000      1.382989000000000      0.628318000000000
H      -5.696832000000000      0.794657000000000      0.361477000000000
O      -2.929051000000000      0.239827000000000     -4.312334000000000
H      -2.344083000000000      0.077461000000000     -5.073159000000000
O      -0.959149000000000     -1.144810000000000     -4.903380000000000
H      -1.078366000000000     -2.089431000000000     -5.129529000000000
O      -1.821371000000000      4.516114000000000      1.556755000000000
H      -1.436356000000000      4.871140000000000      2.378953000000000
O      -3.914918000000000     -0.807541000000000      3.339029000000000
H      -4.356067000000000      0.008274000000000      3.647493000000000
O      -0.471959000000000      0.357120000000000      5.080738000000000
H      -0.173226000000000     -0.533828000000000      5.316641000000000
O      -0.358779000000000      3.768372000000000      3.469634000000000
H      -0.938278000000000      3.561644000000000      4.237702000000000
O       3.373975000000000     -1.845215000000000     -3.527937000000000
H       4.097903000000000     -2.320502000000000     -3.050892000000000
O      -1.984709000000000      2.191180000000000      4.434160000000000
H      -1.750035000000000      1.602704000000000      5.174851000000000
O       0.824642000000000     -4.873887000000000     -1.482901000000000
H       1.168152000000000     -5.048689000000000     -2.380236000000000
O       3.155046000000000     -4.187163000000000     -0.926708000000000
H       3.050355000000000     -4.820508000000000     -0.192177000000000
O       2.348214000000000     -4.342283000000000      1.454234000000000
H       3.161331000000000     -4.185813000000000      1.967585000000000
O       2.805479000000000      4.227659000000000     -0.622638000000000
H       2.186519000000000      4.761029000000000     -0.080944000000000
O       4.407521000000000     -2.230282000000000     -1.271280000000000
H       4.972720000000000     -1.452080000000000     -1.098861000000000
O       3.870944000000000     -2.487875000000000      2.130865000000000
H       4.405835000000000     -1.752276000000000      2.472985000000000
O       1.085589000000000     -3.662748000000000     -3.669868000000000
H       1.887634000000000     -3.257514000000000     -4.033867000000000
O      -3.848776000000000      1.730771000000000      3.006321000000000
H      -4.518786000000000      1.858503000000000      2.306179000000000
O      -3.078288000000000      4.093740000000000     -0.839529000000000
H      -2.872924000000000      4.630113000000000     -0.056536000000000
O      -3.502285000000000      2.761570000000000     -2.873395000000000
H      -3.698702000000000      3.625621000000000     -2.467274000000000
