144

C       3.528119000000000     -1.697994000000000     -0.031911000000000
C       2.610750000000000     -2.731568000000000      0.844681000000000
C       2.177152000000000     -1.906021000000000      2.085854000000000
C       3.620600000000000     -0.406669000000000      0.858632000000000
C       2.456177000000000     -0.483048000000000      1.775524000000000
C       3.838573000000000      0.980129000000000      0.193744000000000
C       3.400650000000000      1.154253000000000     -1.309969000000000
C       3.070579000000000     -1.513523000000000     -1.504983000000000
C       3.291299000000000     -0.119901000000000     -2.213091000000000
C       1.643010000000000     -1.856358000000000     -1.800666000000000
C       1.413499000000000     -3.429899000000000      0.099779000000000
C       0.929871000000000     -2.713292000000000     -1.111868000000000
C       0.052089000000000     -3.674442000000000      0.864199000000000
C       0.724806000000000     -1.877337000000000      2.384620000000000
C      -0.238366000000000     -2.565244000000000      1.801127000000000
C       0.271788000000000     -1.073576000000000      3.560181000000000
C       2.317960000000000      0.473753000000000      2.898141000000000
C       0.909919000000000      0.342057000000000      3.616645000000000
C       3.049024000000000      2.162812000000000      0.950355000000000
C       2.359406000000000      1.934962000000000      2.347597000000000
C       2.170699000000000      2.015594000000000     -1.230274000000000
C       1.988037000000000      2.574795000000000     -0.047947000000000
C       1.501220000000000      2.409338000000000     -2.511049000000000
C       2.073295000000000     -0.040342000000000     -3.275840000000000
C       1.324453000000000     -1.433007000000000     -3.198133000000000
C       1.114344000000000      1.062305000000000     -3.012933000000000
C      -0.197135000000000     -1.499585000000000     -3.527104000000000
C      -0.326529000000000     -3.365879000000000     -1.597675000000000
C      -1.069163000000000     -3.784190000000000     -0.242396000000000
C      -1.075895000000000     -2.516161000000000     -2.638044000000000
C      -2.392499000000000     -2.966766000000000      0.046117000000000
C      -1.559700000000000     -2.408614000000000      2.506721000000000
C      -1.306732000000000     -1.129007000000000      3.403186000000000
C      -2.777156000000000     -2.430847000000000      1.508633000000000
C      -1.809328000000000      0.092782000000000      2.738400000000000
C       0.131963000000000      1.406681000000000      2.901754000000000
C       0.881405000000000      2.269939000000000      2.243340000000000
C      -1.327516000000000      1.460709000000000      3.142829000000000
C       1.029938000000000      3.700367000000000      0.196822000000000
C       0.327483000000000      3.498282000000000      1.607685000000000
C       0.153637000000000      3.216666000000000     -2.316552000000000
C      -0.130034000000000      3.710271000000000     -0.855051000000000
C      -0.252368000000000      0.938242000000000     -3.049890000000000
C      -0.924954000000000     -0.214426000000000     -3.273017000000000
C      -0.961817000000000      2.249727000000000     -2.932813000000000
C      -2.054459000000000     -1.574816000000000     -2.000753000000000
C      -2.549665000000000     -1.727795000000000     -0.797514000000000
C      -2.367624000000000     -0.446232000000000     -2.950385000000000
C      -3.485095000000000     -1.029274000000000      1.263741000000000
C      -2.703333000000000      0.125757000000000      1.770766000000000
C      -3.695077000000000     -0.911548000000000     -0.286011000000000
C      -2.118924000000000      2.461564000000000      2.235514000000000
C      -1.218096000000000      3.360879000000000      1.308454000000000
C      -1.201851000000000      2.950412000000000     -0.131082000000000
C      -3.171965000000000      1.521673000000000      1.470197000000000
C      -2.296733000000000      2.105760000000000     -2.179402000000000
C      -3.149192000000000      0.768708000000000     -2.364120000000000
C      -3.857011000000000      0.528630000000000     -0.907944000000000
C      -2.122049000000000      2.219195000000000     -0.710519000000000
C      -3.359985000000000      1.752896000000000     -0.036975000000000
O       4.810067000000000     -2.250045000000000     -0.137219000000000
H       5.294464000000000     -2.030733000000000      0.674808000000000
O       5.207936000000000      1.258460000000000      0.298169000000000
H       5.526483000000000      1.462049000000000     -0.600980000000000
O       3.358471000000000      0.282333000000000      3.845857000000000
H       3.349348000000000      1.076164000000000      4.409195000000000
O       3.461844000000000     -3.763069000000000      1.254827000000000
H       3.589932000000000     -3.653812000000000      2.216116000000000
O       2.969762000000000      2.726683000000000      3.326493000000000
H       3.445386000000000      3.434563000000000      2.852130000000000
O       3.938975000000000      3.237055000000000      1.108198000000000
H       4.826362000000000      2.887027000000000      0.878708000000000
O       2.881765000000000     -2.398239000000000      3.226525000000000
H       3.214421000000000     -1.642237000000000      3.735622000000000
O       4.404458000000000      1.985569000000000     -1.860695000000000
H       4.116462000000000      2.257446000000000     -2.746951000000000
O       4.501933000000000     -0.142481000000000     -2.894148000000000
H       4.516455000000000     -0.918690000000000     -3.471818000000000
O       3.792835000000000     -2.460936000000000     -2.291351000000000
H       4.555318000000000     -2.745786000000000     -1.755026000000000
O       0.125661000000000     -4.838901000000000      1.630888000000000
H      -0.303907000000000     -5.542334000000000      1.111844000000000
O       1.857523000000000     -4.693214000000000     -0.353578000000000
H       2.590769000000000     -4.948087000000000      0.236907000000000
O      -3.721191000000000     -3.320013000000000      2.037373000000000
H      -4.513854000000000     -2.802688000000000      2.263070000000000
O      -1.693594000000000     -3.470220000000000      3.424741000000000
H      -2.466413000000000     -3.993910000000000      3.141770000000000
O       1.005980000000000      0.745967000000000      4.963871000000000
H       1.141745000000000     -0.061026000000000      5.489175000000000
O       0.648232000000000     -1.721907000000000      4.758061000000000
H       0.492356000000000     -2.668925000000000      4.649540000000000
O      -1.935257000000000     -1.247787000000000      4.640339000000000
H      -1.971755000000000     -2.201471000000000      4.837604000000000
O      -4.729106000000000     -1.059752000000000      1.928183000000000
H      -4.992789000000000     -0.142891000000000      2.114380000000000
O       2.400242000000000      3.108749000000000     -3.326258000000000
H       2.000746000000000      3.986700000000000     -3.480693000000000
O       1.700475000000000      4.926445000000000      0.146530000000000
H       1.812920000000000      5.224233000000000      1.067659000000000
O       0.247210000000000      4.360526000000000     -3.114454000000000
H      -0.246751000000000      4.149948000000000     -3.936011000000000
O      -0.614845000000000      5.036795000000000     -0.936868000000000
H       0.141597000000000      5.598499000000000     -1.170830000000000
O      -4.441127000000000      1.693183000000000      2.072469000000000
H      -4.320268000000000      2.444316000000000      2.698710000000000
O      -2.864700000000000      3.311192000000000      3.057107000000000
H      -2.557178000000000      3.161566000000000      3.971854000000000
O      -1.589509000000000      1.769612000000000      4.490719000000000
H      -0.856800000000000      1.420271000000000      5.027350000000000
O       0.569852000000000      4.609282000000000      2.419955000000000
H      -0.270658000000000      5.113646000000000      2.437956000000000
O      -4.284602000000000      2.807420000000000     -0.215145000000000
H      -4.997831000000000      2.664541000000000      0.430803000000000
O      -4.854216000000000     -1.655292000000000     -0.610773000000000
H      -5.581577000000000     -1.009692000000000     -0.697001000000000
O      -5.239120000000000      0.701757000000000     -1.075193000000000
H      -5.363730000000000      1.012565000000000     -1.998679000000000
O      -3.113314000000000     -0.938400000000000     -4.042188000000000
H      -2.674759000000000     -1.744918000000000     -4.363548000000000
O      -4.183152000000000      1.091991000000000     -3.252320000000000
H      -4.197437000000000      0.400698000000000     -3.939847000000000
O      -1.236844000000000      2.702925000000000     -4.239901000000000
H      -2.137774000000000      3.072550000000000     -4.219182000000000
O       0.028228000000000     -4.537034000000000     -2.296612000000000
H       0.653151000000000     -5.033976000000000     -1.741338000000000
O      -1.806224000000000     -3.348311000000000     -3.498514000000000
H      -1.317973000000000     -4.185881000000000     -3.559569000000000
O      -0.374186000000000     -1.805529000000000     -4.883519000000000
H       0.331324000000000     -2.425748000000000     -5.129389000000000
O       1.914569000000000     -2.328647000000000     -4.117378000000000
H       2.733872000000000     -2.670418000000000     -3.722933000000000
O       4.761987000000000     -0.664221000000000      1.690491000000000
H       4.758598000000000     -0.039882000000000      2.431621000000000
O      -1.760530000000000      4.658488000000000      1.415744000000000
H      -1.615791000000000      5.110553000000000      0.561376000000000
O      -3.076472000000000      3.194587000000000     -2.623236000000000
H      -3.795515000000000      3.337221000000000     -1.985772000000000
O      -1.377905000000000     -5.144010000000000     -0.327792000000000
H      -2.320372000000000     -5.213916000000000     -0.554596000000000
O      -3.412448000000000     -3.855353000000000     -0.357462000000000
H      -4.242065000000000     -3.354000000000000     -0.434825000000000
O       2.681448000000000      0.129418000000000     -4.531405000000000
H       1.995645000000000      0.125238000000000     -5.209415000000000
