148

C      -3.479473000000000     -1.662639000000000      0.295736000000000
C      -2.433251000000000     -2.844937000000000      0.407376000000000
C      -1.940155000000000     -3.136519000000000     -1.048224000000000
C      -3.187391000000000     -1.085627000000000     -1.136006000000000
C      -1.847898000000000     -1.719943000000000     -1.637490000000000
C      -3.554349000000000      0.396390000000000     -1.467905000000000
C      -3.641135000000000      1.461101000000000     -0.278390000000000
C      -3.526876000000000     -0.643264000000000      1.502584000000000
C      -3.423596000000000      0.913219000000000      1.163345000000000
C      -2.434142000000000     -0.786442000000000      2.674742000000000
C      -1.292290000000000     -2.518102000000000      1.293919000000000
C      -1.575057000000000     -2.058314000000000      2.681344000000000
C      -0.045761000000000     -2.921037000000000      1.136366000000000
C      -0.490227000000000     -3.624100000000000     -1.221285000000000
C       0.430738000000000     -3.779694000000000      0.029885000000000
C       0.110470000000000     -2.416234000000000     -1.911761000000000
C      -1.687137000000000     -1.466746000000000     -3.129272000000000
C      -0.223628000000000     -1.916050000000000     -3.305967000000000
C      -2.561180000000000      1.012994000000000     -2.515793000000000
C      -1.684083000000000      0.076147000000000     -3.416553000000000
C      -2.624840000000000      2.627804000000000     -0.694437000000000
C      -1.736536000000000      1.965477000000000     -1.695569000000000
C      -1.843699000000000      3.469259000000000      0.375235000000000
C      -2.101155000000000      1.339291000000000      1.731462000000000
C      -1.603269000000000      0.452280000000000      2.572267000000000
C      -1.743678000000000      2.780008000000000      1.783518000000000
C      -0.586486000000000      0.701150000000000      3.622277000000000
C      -0.144568000000000     -1.948632000000000      3.375872000000000
C       0.767771000000000     -2.815761000000000      2.385518000000000
C       0.403879000000000     -0.511876000000000      3.681250000000000
C       2.191580000000000     -2.307775000000000      2.062022000000000
C       1.896185000000000     -3.414603000000000     -0.450609000000000
C       1.624415000000000     -2.692726000000000     -1.824713000000000
C       2.829991000000000     -2.706648000000000      0.654506000000000
C       2.602188000000000     -1.581074000000000     -2.204362000000000
C       0.566567000000000     -0.624353000000000     -3.327757000000000
C      -0.224910000000000      0.424009000000000     -3.286581000000000
C       2.045662000000000     -0.550298000000000     -3.268445000000000
C      -0.557026000000000      2.413071000000000     -2.066052000000000
C       0.180521000000000      1.849151000000000     -3.237281000000000
C      -0.318787000000000      3.802060000000000     -0.014244000000000
C       0.161132000000000      3.556747000000000     -1.459761000000000
C      -0.277243000000000      2.980886000000000      2.279667000000000
C       0.300501000000000      1.981756000000000      3.352725000000000
C       0.461032000000000      3.009262000000000      0.979200000000000
C       1.471861000000000     -0.043579000000000      2.745961000000000
C       2.272112000000000     -0.812657000000000      2.052577000000000
C       1.737785000000000      1.401247000000000      3.000858000000000
C       3.557267000000000     -1.362974000000000      0.166145000000000
C       2.918761000000000     -0.744198000000000     -1.017116000000000
C       3.525596000000000     -0.367621000000000      1.368617000000000
C       2.564103000000000      0.846768000000000     -2.716295000000000
C       1.689474000000000      2.132024000000000     -2.945223000000000
C       1.710795000000000      3.215625000000000     -1.727559000000000
C       2.856270000000000      0.550382000000000     -1.273174000000000
C       1.698241000000000      2.627770000000000      0.786953000000000
C       2.551314000000000      2.074543000000000      1.879795000000000
C       3.613685000000000      1.180480000000000      1.091187000000000
C       2.531658000000000      2.879429000000000     -0.431445000000000
C       3.442284000000000      1.613192000000000     -0.429062000000000
O      -4.722388000000000     -2.312298000000000      0.226357000000000
H      -5.318454000000000     -1.872372000000000      0.860580000000000
O      -4.809257000000000      0.361563000000000     -2.089099000000000
H      -5.442286000000000      0.812694000000000     -1.499178000000000
O      -2.580015000000000     -2.145475000000000     -3.956558000000000
H      -2.081290000000000     -2.427824000000000     -4.737815000000000
O      -3.048959000000000     -3.977878000000000      0.964077000000000
H      -3.967199000000000     -3.967715000000000      0.627580000000000
O      -2.068810000000000      0.250925000000000     -4.764076000000000
H      -1.558008000000000      1.004587000000000     -5.106719000000000
O      -3.325546000000000      1.846392000000000     -3.369275000000000
H      -3.462886000000000      1.351592000000000     -4.198376000000000
O      -2.778021000000000     -4.060693000000000     -1.676683000000000
H      -3.590508000000000     -3.581573000000000     -1.925971000000000
O      -4.936689000000000      1.992408000000000     -0.285765000000000
H      -4.881951000000000      2.874677000000000     -0.704934000000000
O      -0.414141000000000     -4.834571000000000     -1.936790000000000
H      -1.317847000000000     -5.003794000000000     -2.262392000000000
O       0.400820000000000     -5.100132000000000      0.507757000000000
H       0.346717000000000     -5.677319000000000     -0.272603000000000
O      -3.110677000000000     -0.727726000000000      3.911476000000000
H      -3.232623000000000     -1.659286000000000      4.187297000000000
O      -2.300571000000000     -3.053041000000000      3.373649000000000
H      -2.683478000000000     -3.661285000000000      2.711591000000000
O      -2.645544000000000      3.370424000000000      2.689279000000000
H      -2.485327000000000      4.327372000000000      2.667854000000000
O      -0.219346000000000      4.295666000000000      2.803666000000000
H       0.111112000000000      4.201644000000000      3.720932000000000
O       0.421717000000000      2.697931000000000      4.551290000000000
H      -0.215284000000000      2.304966000000000      5.177613000000000
O      -1.229031000000000      0.895995000000000      4.855712000000000
H      -2.028547000000000      0.332944000000000      4.865155000000000
O       2.505064000000000     -4.631376000000000     -0.791524000000000
H       3.112586000000000     -4.858071000000000     -0.061564000000000
O       3.848777000000000     -3.622030000000000      0.947244000000000
H       4.628523000000000     -3.332380000000000      0.426015000000000
O      -4.769582000000000     -0.871162000000000      2.107243000000000
H      -5.047310000000000     -0.020563000000000      2.498263000000000
O      -4.408126000000000      1.507198000000000      1.991515000000000
H      -4.071222000000000      2.357620000000000      2.327078000000000
O       4.886241000000000     -1.667337000000000     -0.169456000000000
H       5.437355000000000     -1.343983000000000      0.568224000000000
O       4.694255000000000      1.930753000000000     -0.982337000000000
H       4.900735000000000      2.831518000000000     -0.667074000000000
O      -0.084447000000000     -2.734338000000000     -4.420740000000000
H       0.848089000000000     -2.984298000000000     -4.500103000000000
O      -0.242287000000000      2.459795000000000     -4.438907000000000
H       0.541223000000000      2.906569000000000     -4.807622000000000
O       2.549051000000000     -0.830798000000000     -4.532786000000000
H       3.511341000000000     -0.925761000000000     -4.435858000000000
O       3.799056000000000     -2.127636000000000     -2.688235000000000
H       3.602499000000000     -3.034449000000000     -2.977044000000000
O       2.191494000000000      2.788560000000000     -4.074020000000000
H       3.052566000000000      2.368695000000000     -4.277928000000000
O       3.806346000000000      1.065478000000000     -3.365639000000000
H       4.444281000000000      1.379400000000000     -2.695780000000000
O       4.621699000000000     -0.732591000000000      2.191974000000000
H       5.110229000000000      0.094472000000000      2.377781000000000
O       4.888768000000000      1.585960000000000      1.503176000000000
H       4.763923000000000      2.491530000000000      1.865740000000000
O       3.405551000000000      3.947578000000000     -0.127580000000000
H       3.184050000000000      4.680913000000000     -0.726877000000000
O       0.847632000000000     -4.087388000000000      2.981786000000000
H       0.920782000000000     -4.756248000000000      2.282139000000000
O       2.306934000000000      4.373965000000000     -2.238002000000000
H       1.635644000000000      4.805497000000000     -2.798361000000000
O      -0.218269000000000     -2.587122000000000      4.613296000000000
H       0.033673000000000     -3.516895000000000      4.461455000000000
O       0.989572000000000     -0.502784000000000      4.966191000000000
H       0.719054000000000     -1.341110000000000      5.391305000000000
O      -2.506791000000000      4.679880000000000      0.597508000000000
H      -2.872144000000000      4.978778000000000     -0.248572000000000
O      -4.072304000000000     -1.856583000000000     -1.931894000000000
H      -4.139688000000000     -1.483213000000000     -2.824166000000000
O       3.248111000000000      3.161551000000000      2.451280000000000
H       3.243902000000000      3.014362000000000      3.414784000000000
O       2.565391000000000      1.497970000000000      4.141157000000000
H       2.181278000000000      0.927712000000000      4.830864000000000
O      -0.093007000000000      5.175381000000000      0.217880000000000
H      -0.169426000000000      5.329898000000000      1.174109000000000
O       2.987002000000000     -2.788761000000000      3.108423000000000
H       3.870087000000000     -2.397368000000000      3.034020000000000
O      -0.153662000000000      4.695503000000000     -2.234509000000000
H      -0.203723000000000      5.441913000000000     -1.612357000000000
O      -3.393126000000000      3.592532000000000     -1.408184000000000
H      -3.492552000000000      3.267185000000000     -2.325366000000000
O       1.818371000000000     -3.647495000000000     -2.860450000000000
H       1.307964000000000     -4.449175000000000     -2.646615000000000
