152

C      -3.910816000000000      0.320341000000000     -0.428790000000000
C      -3.749740000000000     -1.214364000000000      0.060974000000000
C      -2.958624000000000     -1.939968000000000     -1.130495000000000
C      -3.148414000000000      0.360898000000000     -1.823276000000000
C      -2.233919000000000     -0.824575000000000     -1.820924000000000
C      -2.587536000000000      1.715827000000000     -2.329822000000000
C      -2.139936000000000      2.755578000000000     -1.260750000000000
C      -3.633152000000000      1.444699000000000      0.646876000000000
C      -2.800425000000000      2.748769000000000      0.150768000000000
C      -2.955088000000000      1.066741000000000      2.034400000000000
C      -3.120326000000000     -1.518525000000000      1.450087000000000
C      -2.991931000000000     -0.390700000000000      2.532719000000000
C      -1.779315000000000     -2.150491000000000      1.393938000000000
C      -2.039865000000000     -3.201462000000000     -0.888178000000000
C      -1.541913000000000     -3.377441000000000      0.604810000000000
C      -0.710697000000000     -3.218900000000000     -1.765169000000000
C      -1.592756000000000     -1.129040000000000     -3.131165000000000
C      -0.561170000000000     -2.329819000000000     -3.038107000000000
C      -1.310523000000000      1.554501000000000     -3.326526000000000
C      -0.766763000000000      0.111057000000000     -3.611961000000000
C      -0.649211000000000      2.672184000000000     -1.298465000000000
C      -0.196832000000000      2.518205000000000     -2.703098000000000
C       0.154901000000000      3.090541000000000     -0.357366000000000
C      -1.735993000000000      3.034874000000000      1.307422000000000
C      -1.615087000000000      1.719466000000000      1.994054000000000
C      -0.353061000000000      3.607507000000000      0.937964000000000
C      -0.618715000000000      1.423286000000000      2.792132000000000
C      -1.713863000000000     -0.829949000000000      3.445301000000000
C      -1.146731000000000     -2.096989000000000      2.744585000000000
C      -0.629995000000000      0.275155000000000      3.753352000000000
C       0.303457000000000     -2.093277000000000      2.446173000000000
C      -0.003193000000000     -3.689732000000000      0.519540000000000
C       0.357916000000000     -2.981701000000000     -0.739274000000000
C       0.873664000000000     -3.273722000000000      1.725238000000000
C       1.548132000000000     -2.468167000000000     -0.942839000000000
C       0.872862000000000     -1.634909000000000     -3.192588000000000
C       0.563920000000000     -0.195178000000000     -3.000466000000000
C       2.039915000000000     -2.096108000000000     -2.298916000000000
C       1.294784000000000      2.122330000000000     -2.766404000000000
C       1.468802000000000      0.657107000000000     -2.589942000000000
C       1.614089000000000      3.403123000000000     -0.483719000000000
C       2.330968000000000      2.736639000000000     -1.717264000000000
C       0.873884000000000      3.346873000000000      1.917750000000000
C       0.606121000000000      2.262679000000000      3.026084000000000
C       2.093864000000000      3.045729000000000      0.953914000000000
C       0.898755000000000     -0.112271000000000      3.776056000000000
C       1.207367000000000     -1.226817000000000      2.845464000000000
C       1.688140000000000      1.167270000000000      3.276084000000000
C       2.400964000000000     -2.845964000000000      1.470956000000000
C       2.717983000000000     -2.629669000000000     -0.028612000000000
C       2.610790000000000     -1.632694000000000      2.451696000000000
C       3.260210000000000     -1.114367000000000     -1.995776000000000
C       2.911502000000000      0.357137000000000     -2.365354000000000
C       3.399728000000000      1.532426000000000     -1.453366000000000
C       3.721524000000000     -1.499507000000000     -0.484317000000000
C       2.549494000000000      1.627431000000000      0.986335000000000
C       2.442149000000000      0.823166000000000      2.028354000000000
C       3.379269000000000     -0.364154000000000      1.951660000000000
C       3.643872000000000      1.211888000000000      0.045836000000000
C       4.013805000000000     -0.281762000000000      0.482226000000000
O      -5.260624000000000      0.445067000000000     -0.810743000000000
H      -5.671820000000000      1.114102000000000     -0.232236000000000
O      -3.600359000000000      2.367485000000000     -3.050641000000000
H      -4.261951000000000      1.687502000000000     -3.282592000000000
O      -2.576010000000000     -1.447769000000000     -4.077324000000000
H      -2.161794000000000     -2.048816000000000     -4.721069000000000
O      -5.032335000000000     -1.770568000000000      0.105834000000000
H      -5.607770000000000     -1.161452000000000     -0.408551000000000
O      -0.589391000000000     -0.043659000000000     -5.007599000000000
H      -1.017424000000000      0.729041000000000     -5.422804000000000
O      -1.688199000000000      2.084521000000000     -4.561218000000000
H      -2.565018000000000      2.505299000000000     -4.417981000000000
O      -3.991037000000000     -2.380237000000000     -2.003279000000000
H      -3.874048000000000     -3.340201000000000     -2.141038000000000
O      -2.369591000000000      4.036685000000000     -1.829465000000000
H      -3.222385000000000      4.351274000000000     -1.479568000000000
O      -3.720599000000000      3.800109000000000      0.148625000000000
H      -3.662789000000000      4.199596000000000      1.042452000000000
O      -4.914085000000000      1.913525000000000      0.982924000000000
H      -4.831664000000000      2.274293000000000      1.893094000000000
O      -2.773327000000000     -4.343946000000000     -1.231559000000000
H      -3.102308000000000     -4.720410000000000     -0.389004000000000
O      -2.213928000000000     -4.483052000000000      1.173540000000000
H      -1.612678000000000     -5.247527000000000      1.093782000000000
O       0.132187000000000     -5.091335000000000      0.329908000000000
H       0.633342000000000     -5.420272000000000      1.102058000000000
O       0.885953000000000     -4.388009000000000      2.604656000000000
H       1.809431000000000     -4.452245000000000      2.930581000000000
O       3.206678000000000     -3.873239000000000      1.968929000000000
H       3.683772000000000     -4.265258000000000      1.216206000000000
O       5.410985000000000     -0.311098000000000      0.643826000000000
H       5.715404000000000      0.618848000000000      0.575186000000000
O       3.192293000000000      3.844418000000000      1.321898000000000
H       2.826369000000000      4.591204000000000      1.833544000000000
O       2.562382000000000      1.613857000000000      4.276051000000000
H       2.750510000000000      0.844128000000000      4.844788000000000
O       3.220933000000000     -2.148791000000000      3.597335000000000
H       3.928480000000000     -1.524194000000000      3.846022000000000
O       4.413895000000000     -0.120026000000000      2.872733000000000
H       5.249793000000000     -0.291802000000000      2.387862000000000
O       1.172756000000000      4.556898000000000      2.552542000000000
H       0.814159000000000      4.474405000000000      3.461246000000000
O       0.422868000000000      2.961454000000000      4.237680000000000
H       1.197162000000000      2.745930000000000      4.794170000000000
O       1.305836000000000     -0.443082000000000      5.069698000000000
H       0.644574000000000     -0.021077000000000      5.658164000000000
O      -1.462608000000000     -3.219425000000000      3.561437000000000
H      -0.789398000000000     -3.904031000000000      3.423666000000000
O       4.781502000000000      1.976212000000000      0.426059000000000
H       4.485531000000000      2.849530000000000      0.741491000000000
O      -2.239984000000000     -1.196836000000000      4.691433000000000
H      -2.219730000000000     -2.171467000000000      4.728589000000000
O       1.708285000000000      4.809445000000000     -0.605311000000000
H       2.244310000000000      4.981260000000000     -1.403674000000000
O       1.756797000000000      2.436631000000000     -4.065067000000000
H       1.315872000000000      3.265609000000000     -4.316854000000000
O      -4.132822000000000     -0.461453000000000      3.345022000000000
H      -4.368171000000000     -1.408207000000000      3.397712000000000
O       3.030847000000000      3.758126000000000     -2.367238000000000
H       3.977494000000000      3.489771000000000     -2.360157000000000
O      -3.624601000000000      1.853758000000000      3.017779000000000
H      -4.027160000000000      1.242143000000000      3.657712000000000
O       4.345444000000000     -1.443979000000000     -2.804874000000000
H       4.234124000000000     -2.366124000000000     -3.090470000000000
O       2.586575000000000     -3.258887000000000     -2.904732000000000
H       2.331458000000000     -3.205188000000000     -3.845704000000000
O       4.911774000000000     -2.223498000000000     -0.611711000000000
H       5.625337000000000     -1.623649000000000     -0.867533000000000
O      -0.765394000000000     -3.111947000000000     -4.179329000000000
H      -0.680675000000000     -4.042744000000000     -3.916482000000000
O       4.641094000000000      1.952832000000000     -1.952258000000000
H       4.760632000000000      1.469678000000000     -2.803209000000000
O      -4.119819000000000      0.074755000000000     -2.821750000000000
H      -4.350202000000000     -0.872771000000000     -2.794816000000000
O       1.328950000000000     -1.844876000000000     -4.508432000000000
H       0.723874000000000     -1.373622000000000     -5.107348000000000
O      -0.247662000000000      3.762687000000000     -3.360886000000000
H      -1.077065000000000      4.200214000000000     -3.102085000000000
O      -0.888511000000000      0.795252000000000      5.041157000000000
H      -1.664528000000000      0.322331000000000      5.389480000000000
O       3.533230000000000      0.549742000000000     -3.629017000000000
H       3.021608000000000      1.215849000000000     -4.127471000000000
O      -0.558876000000000      4.999256000000000      0.831756000000000
H       0.228613000000000      5.381125000000000      0.407344000000000
O      -2.338874000000000      3.947260000000000      2.200896000000000
H      -1.845870000000000      4.782116000000000      2.110578000000000
O      -0.519646000000000     -4.538962000000000     -2.240254000000000
H      -0.336016000000000     -5.120537000000000     -1.486677000000000
O      -3.910203000000000     -2.531316000000000      2.079262000000000
H      -4.655772000000000     -2.726030000000000      1.481533000000000
O       3.253214000000000     -3.892638000000000     -0.409538000000000
H       3.392973000000000     -3.905612000000000     -1.368892000000000
