156

C       3.199490000000000     -1.377758000000000      1.863947000000000
C       3.131415000000000      0.200199000000000      2.307313000000000
C       3.355559000000000      0.989414000000000      0.978274000000000
C       3.441614000000000     -1.298111000000000      0.295277000000000
C       2.979017000000000      0.062747000000000     -0.121602000000000
C       3.012147000000000     -2.429500000000000     -0.680498000000000
C       1.894228000000000     -3.435864000000000     -0.181215000000000
C       2.076051000000000     -2.371411000000000      2.379782000000000
C       1.333429000000000     -3.249603000000000      1.272180000000000
C       0.865554000000000     -1.732171000000000      3.218424000000000
C       1.874024000000000      0.602971000000000      3.141628000000000
C       0.699088000000000     -0.285665000000000      2.979163000000000
C       1.230223000000000      2.016270000000000      2.905108000000000
C       2.635053000000000      2.351037000000000      0.879816000000000
C       1.274202000000000      2.351845000000000      1.460946000000000
C       2.491385000000000      2.916239000000000     -0.568268000000000
C       3.335346000000000      0.545502000000000     -1.476511000000000
C       2.606096000000000      1.896298000000000     -1.743721000000000
C       2.489178000000000     -1.879271000000000     -2.088190000000000
C       2.855227000000000     -0.445896000000000     -2.594528000000000
C       0.779476000000000     -3.384515000000000     -1.315758000000000
C       1.021001000000000     -2.114967000000000     -2.037958000000000
C      -0.689312000000000     -3.547486000000000     -0.874451000000000
C      -0.084812000000000     -2.763422000000000      1.359916000000000
C      -0.430714000000000     -2.484580000000000      2.781888000000000
C      -0.982395000000000     -2.874671000000000      0.416215000000000
C      -1.834725000000000     -1.806796000000000      3.018287000000000
C      -0.466694000000000      0.368493000000000      3.645920000000000
C      -0.259587000000000      1.923128000000000      3.389334000000000
C      -1.806260000000000     -0.255565000000000      3.249654000000000
C      -1.337674000000000      2.564863000000000      2.440400000000000
C       0.580470000000000      3.583478000000000      0.962282000000000
C       1.104785000000000      3.742875000000000     -0.538976000000000
C      -0.950727000000000      3.617720000000000      1.309543000000000
C       0.013083000000000      3.401206000000000     -1.595889000000000
C       1.306575000000000      1.405625000000000     -2.308731000000000
C       1.647935000000000      0.313094000000000     -3.293109000000000
C       0.392317000000000      2.462021000000000     -2.778673000000000
C       0.194830000000000     -1.899191000000000     -3.250679000000000
C       0.419584000000000     -0.457145000000000     -3.864767000000000
C      -1.814121000000000     -3.024256000000000     -1.838993000000000
C      -1.333850000000000     -1.993225000000000     -2.919912000000000
C      -2.455830000000000     -2.837156000000000      0.622229000000000
C      -2.957007000000000     -1.995871000000000      1.827386000000000
C      -3.007642000000000     -2.530114000000000     -0.817624000000000
C      -2.349853000000000      0.321490000000000      1.996157000000000
C      -2.152084000000000      1.570161000000000      1.661630000000000
C      -3.465201000000000     -0.539506000000000      1.516507000000000
C      -1.913501000000000      3.299333000000000      0.098468000000000
C      -1.175495000000000      2.691611000000000     -1.026885000000000
C      -2.981298000000000      2.282427000000000      0.648767000000000
C      -0.968184000000000      1.849279000000000     -3.299995000000000
C      -0.949022000000000      0.314947000000000     -3.632912000000000
C      -1.618869000000000     -0.562082000000000     -2.619149000000000
C      -2.019132000000000      2.242719000000000     -2.175078000000000
C      -3.500232000000000     -1.082787000000000     -1.084482000000000
C      -4.022363000000000     -0.203238000000000      0.108934000000000
C      -3.748511000000000      1.353308000000000     -0.360131000000000
C      -2.536518000000000     -0.180937000000000     -1.770489000000000
C      -3.074116000000000      1.200907000000000     -1.768755000000000
O       4.369353000000000     -1.879659000000000      2.447402000000000
H       5.119300000000000     -1.599194000000000      1.897993000000000
O       4.171298000000000     -3.171830000000000     -0.958167000000000
H       3.997001000000000     -4.081284000000000     -0.630989000000000
O       4.735923000000000      0.741823000000000     -1.616002000000000
H       4.838653000000000      1.333618000000000     -2.386069000000000
O       4.218293000000000      0.443052000000000      3.153478000000000
H       4.920000000000000      0.837798000000000      2.601785000000000
O       3.901727000000000     -0.551237000000000     -3.518438000000000
H       3.848881000000000     -1.467537000000000     -3.867449000000000
O       3.003111000000000     -2.766570000000000     -3.075753000000000
H       3.668706000000000     -3.322500000000000     -2.611238000000000
O       4.746984000000000      1.298313000000000      0.946080000000000
H       5.056226000000000      1.256582000000000      0.022394000000000
O       2.499455000000000     -4.698236000000000     -0.245067000000000
H       2.090162000000000     -5.241939000000000      0.454215000000000
O       1.287668000000000     -4.575406000000000      1.763679000000000
H       0.774678000000000     -4.564723000000000      2.598701000000000
O       2.645580000000000     -3.276728000000000      3.274917000000000
H       3.611291000000000     -3.220983000000000      3.202261000000000
O       1.927967000000000      2.973587000000000      3.676300000000000
H       1.338654000000000      3.209712000000000      4.419306000000000
O       2.235387000000000      0.509201000000000      4.516903000000000
H       3.196195000000000      0.684847000000000      4.556043000000000
O      -1.249854000000000      4.896904000000000      1.792997000000000
H      -1.879091000000000      5.293755000000000      1.159261000000000
O       1.167512000000000      4.669941000000000      1.669646000000000
H       0.425057000000000      5.175950000000000      2.061811000000000
O       3.336463000000000      2.533150000000000     -2.784945000000000
H       3.573727000000000      3.425235000000000     -2.475890000000000
O       3.526413000000000      3.836837000000000     -0.779166000000000
H       3.868318000000000      4.072309000000000      0.106183000000000
O       1.435341000000000      5.083891000000000     -0.749758000000000
H       1.707132000000000      5.434517000000000      0.121248000000000
O      -2.544847000000000      4.511381000000000     -0.259832000000000
H      -2.695639000000000      4.493457000000000     -1.222954000000000
O      -0.900766000000000     -4.929075000000000     -0.661197000000000
H      -0.310306000000000     -5.387728000000000     -1.291515000000000
O       0.519789000000000     -2.874417000000000     -4.218647000000000
H       0.717228000000000     -2.382316000000000     -5.043258000000000
O      -2.307360000000000     -4.122513000000000     -2.552789000000000
H      -3.157955000000000     -4.363066000000000     -2.123693000000000
O      -2.014256000000000     -2.282381000000000     -4.126652000000000
H      -2.230537000000000     -3.234917000000000     -4.087850000000000
O      -2.769198000000000      3.352187000000000     -2.661485000000000
H      -2.421821000000000      3.509496000000000     -3.570935000000000
O      -1.311409000000000      2.542760000000000     -4.461375000000000
H      -0.528119000000000      3.101450000000000     -4.675308000000000
O       0.951547000000000      3.262616000000000     -3.799324000000000
H       1.621215000000000      2.717283000000000     -4.257765000000000
O       0.618479000000000     -0.622326000000000     -5.238085000000000
H      -0.165529000000000     -0.219398000000000     -5.672207000000000
O      -4.095251000000000      1.218028000000000     -2.747962000000000
H      -4.246475000000000      2.155395000000000     -2.965667000000000
O      -3.943700000000000      3.026516000000000      1.366632000000000
H      -4.714624000000000      3.114041000000000      0.773315000000000
O      -4.999801000000000      1.951216000000000     -0.553926000000000
H      -5.660821000000000      1.230560000000000     -0.447599000000000
O      -4.559979000000000     -0.264806000000000      2.377077000000000
H      -4.222175000000000     -0.201624000000000      3.290122000000000
O      -5.411569000000000     -0.379429000000000      0.129611000000000
H      -5.673923000000000     -0.448324000000000      1.066696000000000
O      -4.085406000000000     -3.404652000000000     -1.002957000000000
H      -4.779338000000000     -2.909126000000000     -1.474469000000000
O      -0.393422000000000      0.151992000000000      5.039940000000000
H       0.468657000000000      0.465482000000000      5.355041000000000
O      -2.747564000000000      0.062919000000000      4.257130000000000
H      -2.342283000000000     -0.206165000000000      5.098184000000000
O      -2.343857000000000     -2.388851000000000      4.177299000000000
H      -3.252929000000000     -2.685937000000000      3.965862000000000
O      -0.463860000000000     -3.723743000000000      3.453801000000000
H      -0.372298000000000     -3.522792000000000      4.399326000000000
O       4.871019000000000     -1.231862000000000      0.203717000000000
H       5.129175000000000     -1.072631000000000     -0.715270000000000
O      -1.680211000000000      0.222298000000000     -4.837876000000000
H      -2.115278000000000     -0.649621000000000     -4.860385000000000
O      -4.572683000000000     -1.264088000000000     -1.997805000000000
H      -4.769589000000000     -0.407903000000000     -2.418257000000000
O      -0.299693000000000      2.578778000000000      4.625020000000000
H      -1.197753000000000      2.941439000000000      4.722522000000000
O      -2.223538000000000      3.202792000000000      3.334614000000000
H      -3.046491000000000      3.402718000000000      2.854562000000000
O      -4.049912000000000     -2.657236000000000      2.397551000000000
H      -4.020168000000000     -3.578279000000000      2.078961000000000
O       1.045029000000000     -2.011041000000000      4.582710000000000
H       1.803168000000000     -1.503614000000000      4.906106000000000
O      -2.838322000000000     -4.160448000000000      0.958901000000000
H      -2.307830000000000     -4.783286000000000      0.431541000000000
O       3.461106000000000      3.276521000000000      1.581371000000000
H       3.085697000000000      3.433261000000000      2.466923000000000
O       1.049092000000000     -4.493056000000000     -2.166730000000000
H       0.965661000000000     -4.202877000000000     -3.093239000000000
O      -0.493342000000000      4.600467000000000     -2.142094000000000
H       0.183773000000000      5.286209000000000     -2.006609000000000
O       2.185988000000000      0.986559000000000     -4.423173000000000
H       3.100712000000000      0.658855000000000     -4.537012000000000
