120

C       3.461876000000000     -1.355704000000000      0.450876000000000
C       2.809095000000000     -1.596315000000000      1.867722000000000
C       2.719466000000000     -0.172305000000000      2.526159000000000
C       3.325570000000000      0.137163000000000      0.250028000000000
C       2.899911000000000      0.759586000000000      1.330613000000000
C       3.698618000000000      0.792133000000000     -1.038619000000000
C       3.151497000000000     -0.073136000000000     -2.245921000000000
C       2.661998000000000     -1.979865000000000     -0.652327000000000
C       2.530578000000000     -1.384854000000000     -1.834983000000000
C       1.848670000000000     -3.272427000000000     -0.570686000000000
C       1.457638000000000     -2.205994000000000      1.700445000000000
C       1.207659000000000     -3.428408000000000      0.836521000000000
C       0.372432000000000     -1.860334000000000      2.392827000000000
C       1.427689000000000      0.186318000000000      3.390285000000000
C       0.282811000000000     -0.901012000000000      3.517391000000000
C       0.686267000000000      1.302036000000000      2.725312000000000
C       2.650448000000000      2.236218000000000      1.447913000000000
C       1.219608000000000      2.244721000000000      1.885201000000000
C       3.060632000000000      2.237913000000000     -1.209558000000000
C       2.649336000000000      3.060666000000000      0.089262000000000
C       1.970593000000000      0.719465000000000     -2.722853000000000
C       1.874315000000000      1.971154000000000     -2.083590000000000
C       0.905093000000000      0.154771000000000     -3.353921000000000
C       1.582776000000000     -2.184129000000000     -2.744891000000000
C       0.857373000000000     -2.946014000000000     -1.656132000000000
C       0.690658000000000     -1.299637000000000     -3.693744000000000
C      -0.455103000000000     -2.996102000000000     -1.507404000000000
C      -0.377347000000000     -3.632598000000000      0.934747000000000
C      -0.785861000000000     -2.478506000000000      1.808496000000000
C      -1.207207000000000     -3.652976000000000     -0.385292000000000
C      -1.981289000000000     -1.923375000000000      1.874726000000000
C      -1.098916000000000     -0.098899000000000      3.500513000000000
C      -0.686689000000000      1.154173000000000      2.795709000000000
C      -2.304820000000000     -0.722438000000000      2.720986000000000
C      -1.499730000000000      1.938792000000000      2.014482000000000
C       0.405525000000000      3.011017000000000      1.077186000000000
C       1.174162000000000      3.788265000000000      0.064125000000000
C      -0.956497000000000      2.857209000000000      1.142056000000000
C       0.718906000000000      2.685547000000000     -2.123123000000000
C       0.330380000000000      3.840842000000000     -1.257405000000000
C      -0.316312000000000      0.840765000000000     -3.316796000000000
C      -0.409924000000000      2.077754000000000     -2.693363000000000
C      -0.891657000000000     -1.462613000000000     -3.523384000000000
C      -1.330695000000000     -2.154531000000000     -2.263425000000000
C      -1.395620000000000     -0.049333000000000     -3.302898000000000
C      -2.623869000000000     -2.867523000000000     -0.408984000000000
C      -3.072543000000000     -2.084706000000000      0.855501000000000
C      -2.450951000000000     -1.901933000000000     -1.571631000000000
C      -2.904306000000000      0.152829000000000      1.608196000000000
C      -2.942909000000000      1.643518000000000      1.721489000000000
C      -3.300363000000000     -0.583054000000000      0.577894000000000
C      -1.973568000000000      3.457410000000000      0.235331000000000
C      -1.322571000000000      3.671270000000000     -1.165084000000000
C      -1.574580000000000      2.453304000000000     -2.010163000000000
C      -3.265528000000000      2.448007000000000      0.393288000000000
C      -2.482299000000000      0.280279000000000     -2.538867000000000
C      -3.385533000000000     -0.756471000000000     -1.921318000000000
C      -3.958169000000000     -0.018432000000000     -0.633984000000000
C      -2.561521000000000      1.521027000000000     -1.876618000000000
C      -3.655389000000000      1.547824000000000     -0.851259000000000
O       4.806450000000000     -1.753747000000000      0.421192000000000
H       4.937363000000000     -2.379417000000000      1.153340000000000
O       5.092835000000000      0.943973000000000     -1.108592000000000
H       5.485383000000000      0.063855000000000     -1.183268000000000
O       3.538220000000000      2.775560000000000      2.391847000000000
H       4.014092000000000      3.504172000000000      1.961431000000000
O       3.618797000000000     -2.471914000000000      2.622007000000000
H       4.102826000000000     -1.910549000000000      3.254657000000000
O       3.594279000000000      4.082405000000000      0.244469000000000
H       4.069009000000000      4.125589000000000     -0.620362000000000
O       3.989652000000000      3.035724000000000     -1.916245000000000
H       4.797997000000000      2.499337000000000     -2.017822000000000
O       3.851579000000000     -0.076837000000000      3.356019000000000
H       3.841536000000000      0.808196000000000      3.751925000000000
O       4.184855000000000     -0.249381000000000     -3.178014000000000
H       3.830135000000000     -0.749165000000000     -3.925553000000000
O       1.844303000000000      0.559076000000000      4.671109000000000
H       1.790322000000000     -0.234938000000000      5.230779000000000
O       0.414750000000000     -1.595600000000000      4.723380000000000
H      -0.211485000000000     -1.160085000000000      5.339421000000000
O      -1.456221000000000      0.120146000000000      4.842588000000000
H      -2.327782000000000     -0.291587000000000      4.977409000000000
O      -3.309513000000000     -1.039352000000000      3.670456000000000
H      -3.950617000000000     -1.618201000000000      3.227263000000000
O      -3.644414000000000     -3.782544000000000     -0.708302000000000
H      -3.202194000000000     -4.587046000000000     -1.042740000000000
O      -1.452439000000000     -4.985500000000000     -0.749630000000000
H      -1.380981000000000     -5.508655000000000      0.073063000000000
O      -0.661155000000000     -4.838583000000000      1.605623000000000
H       0.175911000000000     -5.168607000000000      1.975851000000000
O       2.644824000000000     -4.380676000000000     -0.915896000000000
H       2.633813000000000     -4.999298000000000     -0.166862000000000
O       1.828232000000000     -4.533563000000000      1.487725000000000
H       2.519239000000000     -4.185549000000000      2.073726000000000
O      -4.211932000000000     -2.645702000000000      1.453081000000000
H      -4.658239000000000     -3.174803000000000      0.770677000000000
O       2.308108000000000     -3.066060000000000     -3.568965000000000
H       2.723164000000000     -3.728668000000000     -2.997601000000000
O       1.060440000000000     -1.493757000000000     -5.020563000000000
H       0.715949000000000     -2.347306000000000     -5.314016000000000
O      -1.384635000000000     -2.134076000000000     -4.650932000000000
H      -2.349286000000000     -2.110561000000000     -4.615408000000000
O      -4.418562000000000     -1.179830000000000     -2.760988000000000
H      -5.218180000000000     -1.236654000000000     -2.205681000000000
O      -5.335915000000000     -0.226558000000000     -0.559028000000000
H      -5.736095000000000      0.581192000000000     -0.948153000000000
O      -3.838758000000000      2.080115000000000      2.711512000000000
H      -3.699224000000000      1.552439000000000      3.506911000000000
O      -4.382915000000000      3.249495000000000      0.621299000000000
H      -4.100656000000000      3.967733000000000      1.213981000000000
O      -4.825182000000000      2.061168000000000     -1.444135000000000
H      -5.118207000000000      2.808892000000000     -0.891149000000000
O      -1.900494000000000      4.821969000000000     -1.716347000000000
H      -1.186871000000000      5.276896000000000     -2.207648000000000
O       0.578844000000000      5.054696000000000     -1.905419000000000
H       0.856318000000000      5.676080000000000     -1.200690000000000
O       1.346826000000000      5.123218000000000      0.473709000000000
H       2.297380000000000      5.244273000000000      0.660512000000000
O      -2.370161000000000      4.699852000000000      0.748216000000000
H      -2.495084000000000      5.282568000000000     -0.025708000000000
