128

C      -1.777798000000000     -1.699799000000000      2.726168000000000
C      -0.546620000000000     -2.684687000000000      2.515163000000000
C      -0.852922000000000     -3.366245000000000      1.121929000000000
C      -2.264282000000000     -1.469044000000000      1.320315000000000
C      -1.794828000000000     -2.385177000000000      0.487185000000000
C      -3.477311000000000     -0.637241000000000      1.071057000000000
C      -3.339664000000000      0.782418000000000      1.708425000000000
C      -1.549025000000000     -0.398483000000000      3.544883000000000
C      -2.280863000000000      0.888221000000000      2.893635000000000
C      -0.027428000000000      0.093290000000000      3.760188000000000
C       0.721747000000000     -1.926201000000000      2.432825000000000
C       1.120020000000000     -0.909551000000000      3.464603000000000
C       1.660805000000000     -2.113884000000000      1.506466000000000
C       0.308887000000000     -3.680902000000000      0.104743000000000
C       1.746088000000000     -3.189844000000000      0.491236000000000
C       0.068587000000000     -2.961133000000000     -1.215865000000000
C      -2.358742000000000     -2.623357000000000     -0.871858000000000
C      -1.249792000000000     -2.997113000000000     -1.923121000000000
C      -3.703808000000000     -0.392316000000000     -0.461663000000000
C      -2.850066000000000     -1.281366000000000     -1.320770000000000
C      -2.979979000000000      1.641554000000000      0.491556000000000
C      -3.183265000000000      1.012544000000000     -0.651050000000000
C      -2.378723000000000      3.010713000000000      0.627488000000000
C      -1.125270000000000      1.678432000000000      2.364655000000000
C       0.092036000000000      1.233730000000000      2.822971000000000
C      -1.161007000000000      2.660219000000000      1.410708000000000
C       1.252679000000000      1.743081000000000      2.310167000000000
C       2.510244000000000     -0.308030000000000      2.852428000000000
C       2.614670000000000     -1.045213000000000      1.557893000000000
C       2.619000000000000      1.235100000000000      2.587594000000000
C       3.275955000000000     -0.662991000000000      0.481692000000000
C       2.385234000000000     -2.696181000000000     -0.850129000000000
C       1.172111000000000     -2.394541000000000     -1.680991000000000
C       3.417152000000000     -1.532110000000000     -0.748059000000000
C       1.352108000000000     -1.868851000000000     -3.055225000000000
C      -1.374760000000000     -1.919766000000000     -3.070531000000000
C      -2.263426000000000     -0.853383000000000     -2.428881000000000
C      -0.019245000000000     -1.350277000000000     -3.658294000000000
C      -3.034802000000000      1.605384000000000     -2.011791000000000
C      -2.417165000000000      0.529662000000000     -3.006915000000000
C      -1.811529000000000      3.668177000000000     -0.705263000000000
C      -2.038667000000000      2.838280000000000     -2.039051000000000
C       0.000666000000000      3.157022000000000      0.863749000000000
C       1.209721000000000      2.700081000000000      1.319049000000000
C      -0.245104000000000      4.018566000000000     -0.325995000000000
C       3.466593000000000      1.779702000000000      1.306571000000000
C       3.909455000000000      0.687447000000000      0.258451000000000
C       2.548612000000000      3.007211000000000      0.752676000000000
C       3.409669000000000     -0.454704000000000     -1.923179000000000
C       2.323628000000000     -0.613622000000000     -3.066001000000000
C       3.304613000000000      0.862608000000000     -1.120319000000000
C       0.055001000000000      0.118133000000000     -3.364699000000000
C      -0.989762000000000      0.975927000000000     -3.112604000000000
C      -0.766659000000000      2.205931000000000     -2.508478000000000
C       1.336461000000000      0.502000000000000     -3.034257000000000
C       0.913647000000000      3.742812000000000     -1.344450000000000
C       2.387907000000000      3.229565000000000     -0.782135000000000
C       2.602235000000000      1.923334000000000     -1.506043000000000
C       0.509771000000000      2.608783000000000     -2.224815000000000
C       1.557121000000000      1.728505000000000     -2.465179000000000
O      -2.820916000000000     -2.447446000000000      3.337998000000000
H      -2.810411000000000     -2.204024000000000      4.282108000000000
O      -4.589259000000000      1.213420000000000      2.171135000000000
H      -5.146657000000000      0.425062000000000      2.289439000000000
O      -0.472124000000000     -3.620081000000000      3.547384000000000
H      -1.231535000000000     -4.216022000000000      3.441566000000000
O      -2.885716000000000      1.535177000000000      3.979085000000000
H      -3.463492000000000      2.227801000000000      3.627508000000000
O      -2.092253000000000     -0.652687000000000      4.804473000000000
H      -1.843273000000000      0.102174000000000      5.365171000000000
O      -1.587373000000000     -4.549304000000000      1.355835000000000
H      -1.051908000000000     -5.267629000000000      0.951542000000000
O      -4.601242000000000     -1.304759000000000      1.604302000000000
H      -4.282746000000000     -1.867532000000000      2.338420000000000
O      -3.337427000000000     -3.636644000000000     -0.813484000000000
H      -3.194677000000000     -4.138002000000000      0.007300000000000
O       0.344612000000000     -5.067716000000000     -0.096628000000000
H       1.217106000000000     -5.358153000000000      0.244182000000000
O       2.471075000000000     -4.269824000000000      1.019575000000000
H       3.279803000000000     -4.356852000000000      0.487938000000000
O       3.015554000000000     -3.835791000000000     -1.387011000000000
H       3.279179000000000     -3.648853000000000     -2.297767000000000
O      -1.502595000000000     -4.261210000000000     -2.468394000000000
H      -2.320016000000000     -4.587542000000000     -2.038623000000000
O       1.881450000000000     -2.909708000000000     -3.828057000000000
H       1.517643000000000     -2.814032000000000     -4.725582000000000
O       4.666787000000000     -2.162457000000000     -0.679415000000000
H       5.340617000000000     -1.464320000000000     -0.686070000000000
O       0.045942000000000     -1.599747000000000     -5.044326000000000
H      -0.807207000000000     -2.011989000000000     -5.287929000000000
O      -2.088753000000000     -2.492406000000000     -4.145260000000000
H      -2.066642000000000     -3.460797000000000     -3.983606000000000
O      -3.197634000000000      3.895659000000000      1.332852000000000
H      -3.865446000000000      4.248813000000000      0.730590000000000
O      -4.280845000000000      2.063923000000000     -2.466107000000000
H      -4.895511000000000      1.318057000000000     -2.455943000000000
O      -5.060523000000000     -0.461864000000000     -0.813958000000000
H      -5.480647000000000     -1.103725000000000     -0.221889000000000
O      -3.165293000000000      0.541457000000000     -4.192966000000000
H      -2.973859000000000     -0.265900000000000     -4.685619000000000
O      -2.481556000000000      4.884632000000000     -0.850671000000000
H      -2.608528000000000      5.007666000000000     -1.816444000000000
O      -2.492488000000000      3.746853000000000     -3.021433000000000
H      -3.354680000000000      3.419519000000000     -3.332140000000000
O       1.419940000000000     -1.558602000000000      4.681900000000000
H       1.233875000000000     -2.501989000000000      4.591708000000000
O       0.082572000000000      0.544410000000000      5.082351000000000
H       0.624956000000000     -0.113197000000000      5.554727000000000
O       3.563925000000000     -0.706384000000000      3.668807000000000
H       3.595540000000000     -0.079329000000000      4.410210000000000
O       3.146806000000000      1.817596000000000      3.749176000000000
H       4.064072000000000      2.075605000000000      3.540814000000000
O       4.641912000000000      2.351982000000000      1.804234000000000
H       4.449063000000000      3.318867000000000      1.859870000000000
O       5.306324000000000      0.564449000000000      0.208032000000000
H       5.685806000000000      1.260751000000000      0.766700000000000
O       3.338816000000000      4.186843000000000     -1.163456000000000
H       2.910742000000000      4.730999000000000     -1.856781000000000
O       1.142772000000000      4.902784000000000     -2.094474000000000
H       0.802260000000000      5.638890000000000     -1.544903000000000
O      -0.179296000000000      5.388994000000000     -0.022717000000000
H      -1.097818000000000      5.712044000000000      0.036880000000000
O       3.074804000000000      4.185764000000000      1.313035000000000
H       3.410404000000000      4.711588000000000      0.557626000000000
O       4.689432000000000     -0.469696000000000     -2.493953000000000
H       4.600213000000000     -0.472870000000000     -3.457231000000000
O       3.023898000000000     -0.612982000000000     -4.297303000000000
H       2.373683000000000     -0.616664000000000     -5.011418000000000
