132

C       2.509428000000000     -2.075215000000000     -1.813960000000000
C       1.357299000000000     -3.105825000000000     -1.482411000000000
C       1.500496000000000     -3.353638000000000      0.060196000000000
C       2.719438000000000     -1.395283000000000     -0.488650000000000
C       2.211897000000000     -2.109330000000000      0.504935000000000
C       3.775519000000000     -0.356470000000000     -0.334402000000000
C       3.605398000000000      0.788391000000000     -1.385429000000000
C       2.301102000000000     -1.113384000000000     -3.014114000000000
C       2.771075000000000      0.397039000000000     -2.686514000000000
C       0.795210000000000     -0.949572000000000     -3.573157000000000
C       0.013110000000000     -2.552922000000000     -1.783042000000000
C      -0.274069000000000     -1.994766000000000     -3.141229000000000
C      -1.072692000000000     -2.734724000000000     -1.052843000000000
C       0.217506000000000     -3.564702000000000      0.946092000000000
C      -1.188038000000000     -3.458192000000000      0.243236000000000
C       0.139095000000000     -2.486936000000000      2.017557000000000
C       2.547951000000000     -1.879344000000000      1.935286000000000
C       1.311107000000000     -2.122052000000000      2.876087000000000
C       3.694960000000000      0.335787000000000      1.070001000000000
C       2.806328000000000     -0.406160000000000      2.032521000000000
C       2.941040000000000      1.888738000000000     -0.547773000000000
C       3.003356000000000      1.638797000000000      0.747703000000000
C       2.234604000000000      3.062490000000000     -1.175513000000000
C       1.465438000000000      1.120776000000000     -2.590814000000000
C       0.403702000000000      0.378345000000000     -3.052249000000000
C       1.223504000000000      2.325606000000000     -1.987506000000000
C      -0.873874000000000      0.813858000000000     -2.864123000000000
C      -1.823303000000000     -1.517691000000000     -3.046589000000000
C      -2.306807000000000     -2.159071000000000     -1.698519000000000
C      -2.106292000000000      0.036682000000000     -3.150321000000000
C      -2.813387000000000     -1.206959000000000     -0.674887000000000
C      -2.093440000000000     -2.706289000000000      1.286593000000000
C      -1.091013000000000     -2.014511000000000      2.152182000000000
C      -3.182348000000000     -1.773473000000000      0.671142000000000
C      -1.581488000000000     -1.159419000000000      3.258251000000000
C       1.109267000000000     -0.770994000000000      3.663196000000000
C       1.995377000000000      0.209188000000000      2.880229000000000
C      -0.392018000000000     -0.276131000000000      3.831238000000000
C       2.545497000000000      2.553801000000000      1.830514000000000
C       1.870473000000000      1.709017000000000      3.001755000000000
C       1.360023000000000      3.963974000000000     -0.202308000000000
C       1.422122000000000      3.554949000000000      1.326301000000000
C      -0.065620000000000      2.773208000000000     -1.788381000000000
C      -1.117644000000000      2.013950000000000     -2.221161000000000
C      -0.147915000000000      3.957895000000000     -0.891981000000000
C      -3.133395000000000      0.751257000000000     -2.151943000000000
C      -3.176623000000000      0.049151000000000     -0.844881000000000
C      -2.567179000000000      2.231915000000000     -1.964787000000000
C      -3.603812000000000     -0.504402000000000      1.521951000000000
C      -2.652560000000000     -0.120410000000000      2.719451000000000
C      -3.821160000000000      0.652901000000000      0.365765000000000
C      -0.548701000000000      0.962223000000000      3.012217000000000
C       0.416401000000000      1.877425000000000      2.691122000000000
C       0.180027000000000      2.825082000000000      1.712496000000000
C      -1.768022000000000      1.010305000000000      2.367963000000000
C      -1.437062000000000      3.771859000000000     -0.006461000000000
C      -2.784197000000000      2.983618000000000     -0.593815000000000
C      -3.256725000000000      2.087921000000000      0.637829000000000
C      -1.050706000000000      2.901121000000000      1.123762000000000
C      -2.022756000000000      1.980056000000000      1.449707000000000
O       3.705966000000000     -2.816429000000000     -2.019223000000000
H       3.855955000000000     -2.826555000000000     -2.983156000000000
O       4.865869000000000      1.250726000000000     -1.781108000000000
H       5.521608000000000      0.581698000000000     -1.519469000000000
O       1.522686000000000     -4.285343000000000     -2.218114000000000
H       2.304261000000000     -4.731602000000000     -1.851537000000000
O       3.494491000000000      0.797517000000000     -3.819136000000000
H       3.938902000000000      1.630794000000000     -3.604549000000000
O       3.081449000000000     -1.632786000000000     -4.050280000000000
H       3.024567000000000     -0.998654000000000     -4.782748000000000
O       2.385446000000000     -4.434423000000000      0.263464000000000
H       1.886612000000000     -5.076877000000000      0.815216000000000
O       5.039471000000000     -0.970146000000000     -0.476882000000000
H       4.920090000000000     -1.755983000000000     -1.045606000000000
O       3.623881000000000     -2.705993000000000      2.320241000000000
H       3.699491000000000     -3.421111000000000      1.667107000000000
O       0.311961000000000     -4.829123000000000      1.547288000000000
H      -0.407972000000000     -5.362979000000000      1.146497000000000
O      -1.682422000000000     -4.751918000000000      0.013635000000000
H      -2.485102000000000     -4.850077000000000      0.554968000000000
O      -2.732397000000000     -3.706206000000000      2.053273000000000
H      -2.833297000000000     -3.382017000000000      2.961453000000000
O       1.590161000000000     -3.143676000000000      3.791276000000000
H       2.514792000000000     -3.418974000000000      3.620854000000000
O      -2.127142000000000     -1.991171000000000      4.238060000000000
H      -2.211932000000000     -1.444651000000000      5.038346000000000
O      -4.314584000000000     -2.595690000000000      0.454736000000000
H      -5.067590000000000     -2.160601000000000      0.893701000000000
O      -0.669562000000000     -0.054581000000000      5.187325000000000
H       0.137451000000000     -0.299790000000000      5.680962000000000
O       1.651623000000000     -0.919631000000000      4.954077000000000
H       1.736558000000000     -1.886393000000000      5.095098000000000
O       3.093370000000000      3.831727000000000     -1.966043000000000
H       3.323338000000000      4.629966000000000     -1.467916000000000
O       3.616421000000000      3.321582000000000      2.306148000000000
H       4.319633000000000      2.718247000000000      2.580686000000000
O       4.965868000000000      0.584817000000000      1.610783000000000
H       5.547003000000000     -0.139708000000000      1.335763000000000
O       2.324150000000000      2.213734000000000      4.224770000000000
H       2.030962000000000      1.624171000000000      4.929946000000000
O       1.857417000000000      5.264718000000000     -0.309811000000000
H       1.771497000000000      5.652914000000000      0.588746000000000
O       1.536420000000000      4.748927000000000      2.071139000000000
H       2.332936000000000      4.665000000000000      2.622609000000000
O      -0.236830000000000     -3.049092000000000     -4.082167000000000
H       0.336822000000000     -3.749554000000000     -3.733790000000000
O       0.856890000000000     -0.926433000000000     -4.971532000000000
H       0.496527000000000     -1.779351000000000     -5.278860000000000
O      -2.510031000000000     -2.097536000000000     -4.113181000000000
H      -2.925857000000000     -2.912838000000000     -3.786656000000000
O      -3.263671000000000     -3.146503000000000     -1.994105000000000
H      -3.866674000000000     -3.220187000000000     -1.232127000000000
O      -3.135347000000000      3.029834000000000     -2.973782000000000
H      -3.955635000000000      2.570082000000000     -3.244589000000000
O      -4.394613000000000      0.810149000000000     -2.742901000000000
H      -4.255592000000000      0.551339000000000     -3.678274000000000
O      -2.598595000000000      0.320469000000000     -4.438815000000000
H      -2.551385000000000     -0.500569000000000     -4.956900000000000
O      -5.186920000000000      0.743518000000000      0.123046000000000
H      -5.520651000000000      1.481525000000000      0.662996000000000
O      -4.253154000000000      2.772017000000000      1.370555000000000
H      -4.362442000000000      3.640325000000000      0.947328000000000
O      -3.764674000000000      3.953327000000000     -0.775258000000000
H      -3.755497000000000      4.173302000000000     -1.728025000000000
O      -1.858947000000000      5.015974000000000      0.454150000000000
H      -1.722830000000000      5.638833000000000     -0.280563000000000
O      -0.311377000000000      5.164266000000000     -1.583771000000000
H       0.540886000000000      5.635110000000000     -1.550878000000000
O      -4.867374000000000     -0.780788000000000      2.051486000000000
H      -4.839534000000000     -0.565177000000000      3.003105000000000
O      -3.462865000000000      0.225010000000000      3.834907000000000
H      -3.671567000000000      1.166815000000000      3.781188000000000
