132

C       1.741973000000000      3.318968000000000      0.177405000000000
C       0.479736000000000      3.604751000000000     -0.721024000000000
C       0.838821000000000      2.973580000000000     -2.106808000000000
C       2.308909000000000      2.089020000000000     -0.474606000000000
C       1.899080000000000      1.961825000000000     -1.721597000000000
C       3.533384000000000      1.437717000000000      0.042228000000000
C       3.352548000000000      1.101596000000000      1.558826000000000
C       1.517152000000000      3.226728000000000      1.715814000000000
C       2.297968000000000      1.973251000000000      2.372594000000000
C      -0.004526000000000      3.075242000000000      2.248739000000000
C      -0.752848000000000      2.995260000000000     -0.152031000000000
C      -1.164524000000000      3.337454000000000      1.246087000000000
C      -1.719003000000000      2.421634000000000     -0.849402000000000
C      -0.331475000000000      2.318177000000000     -2.955218000000000
C      -1.782138000000000      2.295078000000000     -2.324016000000000
C      -0.054684000000000      0.854240000000000     -3.088043000000000
C       2.433091000000000      0.984691000000000     -2.721704000000000
C       1.176448000000000      0.243010000000000     -3.048618000000000
C       3.802423000000000      0.052473000000000     -0.641683000000000
C       3.410380000000000     -0.126518000000000     -2.144716000000000
C       2.948988000000000     -0.368381000000000      1.491906000000000
C       3.129792000000000     -0.910330000000000      0.298979000000000
C       2.484841000000000     -1.085563000000000      2.720025000000000
C       1.182076000000000      1.066727000000000      2.771364000000000
C      -0.056436000000000      1.658752000000000      2.673227000000000
C       1.266421000000000     -0.277232000000000      3.037709000000000
C      -1.189770000000000      0.906657000000000      2.775453000000000
C      -2.578127000000000      2.560935000000000      1.444191000000000
C      -2.975157000000000      2.225102000000000     -0.068199000000000
C      -2.574376000000000      1.358855000000000      2.470484000000000
C      -3.625298000000000      0.844743000000000     -0.333491000000000
C      -2.427929000000000      0.915605000000000     -2.764828000000000
C      -1.197913000000000      0.093032000000000     -2.938151000000000
C      -3.472937000000000      0.225565000000000     -1.804541000000000
C      -1.094059000000000     -1.255599000000000     -2.768612000000000
C       1.287848000000000     -1.114060000000000     -2.827604000000000
C       2.688192000000000     -1.538117000000000     -2.476150000000000
C       0.140842000000000     -1.867078000000000     -2.736221000000000
C       3.133615000000000     -2.377106000000000      0.050253000000000
C       2.597033000000000     -2.719836000000000     -1.404317000000000
C       1.938800000000000     -2.548832000000000      2.492475000000000
C       2.165674000000000     -3.127976000000000      1.034919000000000
C       0.126062000000000     -1.041389000000000      3.162137000000000
C      -1.107292000000000     -0.451781000000000      3.018119000000000
C       0.384699000000000     -2.506015000000000      2.947746000000000
C      -3.225126000000000     -0.031060000000000      2.032623000000000
C      -3.100668000000000     -0.224462000000000      0.571106000000000
C      -2.425345000000000     -1.137593000000000      2.816667000000000
C      -3.229269000000000     -1.344274000000000     -1.495201000000000
C      -2.212419000000000     -2.141964000000000     -2.369057000000000
C      -2.876630000000000     -1.375187000000000     -0.039837000000000
C       0.083416000000000     -3.240666000000000     -2.148139000000000
C       1.153761000000000     -3.105327000000000     -1.107378000000000
C       0.923947000000000     -3.206502000000000      0.196158000000000
C      -1.452196000000000     -3.389224000000000     -1.674666000000000
C      -0.670082000000000     -2.800938000000000      1.920813000000000
C      -2.157368000000000     -2.543096000000000      2.114835000000000
C      -2.693934000000000     -2.689645000000000      0.628620000000000
C      -0.395436000000000     -3.229324000000000      0.694775000000000
C      -1.614028000000000     -3.564156000000000     -0.116970000000000
O       2.706090000000000      4.323394000000000     -0.079677000000000
H       2.667242000000000      4.936856000000000      0.681228000000000
O       4.648848000000000      2.254723000000000     -0.197844000000000
H       4.370227000000000      3.180985000000000     -0.107720000000000
O       3.003820000000000      1.696939000000000     -3.787041000000000
H       3.879109000000000      1.314997000000000     -3.961121000000000
O       0.252819000000000      4.987006000000000     -0.825553000000000
H       0.937806000000000      5.327222000000000     -1.424996000000000
O       4.583805000000000     -0.059402000000000     -2.914606000000000
H       5.329376000000000     -0.090584000000000     -2.277072000000000
O       5.205523000000000     -0.205487000000000     -0.547727000000000
H       5.591744000000000      0.522482000000000     -0.030971000000000
O       1.432751000000000      3.996756000000000     -2.865718000000000
H       1.902951000000000      3.572165000000000     -3.600063000000000
O       4.622020000000000      1.185903000000000      2.138992000000000
H       4.575513000000000      0.778900000000000      3.017568000000000
O       4.431696000000000     -2.884512000000000      0.234239000000000
H       5.073697000000000     -2.214978000000000     -0.042051000000000
O       3.497410000000000     -1.032165000000000      3.688860000000000
H       3.518112000000000     -1.910783000000000      4.106422000000000
O      -0.379595000000000      2.920183000000000     -4.213309000000000
H      -0.690804000000000      3.830077000000000     -4.099317000000000
O       2.974562000000000      2.463791000000000      3.514622000000000
H       2.391602000000000      2.375569000000000      4.279601000000000
O       2.022015000000000      4.412231000000000      2.262618000000000
H       2.598078000000000      4.152884000000000      3.009965000000000
O      -2.562311000000000      3.350282000000000     -2.828782000000000
H      -2.920330000000000      2.999368000000000     -3.673562000000000
O      -3.022741000000000      1.169524000000000     -4.014082000000000
H      -3.914967000000000      0.778164000000000     -3.992287000000000
O      -4.706078000000000      0.361377000000000     -2.449995000000000
H      -5.257561000000000     -0.389925000000000     -2.167454000000000
O       2.634994000000000     -3.345956000000000      3.395055000000000
H       2.590895000000000     -4.258877000000000      3.061240000000000
O       2.629980000000000     -4.452856000000000      1.186789000000000
H       3.523620000000000     -4.491868000000000      0.811397000000000
O      -2.858754000000000     -2.591734000000000     -3.523028000000000
H      -3.747400000000000     -2.887644000000000     -3.265151000000000
O      -1.982037000000000     -4.549889000000000     -2.250317000000000
H      -1.418480000000000     -4.777833000000000     -3.008645000000000
O      -1.923707000000000     -4.905869000000000      0.175368000000000
H      -2.090275000000000     -5.349175000000000     -0.677330000000000
O      -3.938959000000000     -3.338133000000000      0.618093000000000
H      -3.783179000000000     -4.200311000000000      1.043705000000000
O      -2.717207000000000     -3.560825000000000      2.895209000000000
H      -3.208296000000000     -3.117534000000000      3.615713000000000
O      -3.076739000000000     -1.393757000000000      4.034758000000000
H      -3.812931000000000     -0.766488000000000      4.107382000000000
O      -3.519060000000000      3.453621000000000      1.952105000000000
H      -3.338267000000000      4.327065000000000      1.570666000000000
O      -3.911782000000000      3.211700000000000     -0.469007000000000
H      -3.683656000000000      3.494805000000000     -1.374820000000000
O      -1.470053000000000      4.722266000000000      1.293615000000000
H      -0.934127000000000      5.171820000000000      0.617076000000000
O      -0.153717000000000      3.898115000000000      3.369116000000000
H      -0.588476000000000      4.715304000000000      3.074153000000000
O      -5.002252000000000      0.968834000000000     -0.046716000000000
H      -5.236946000000000      1.898202000000000     -0.236975000000000
O      -3.186007000000000      1.736372000000000      3.673176000000000
H      -3.720465000000000      2.527258000000000      3.497715000000000
O      -4.566690000000000     -0.100266000000000      2.425884000000000
H      -5.104747000000000      0.312991000000000      1.728224000000000
O      -4.492481000000000     -1.976243000000000     -1.647648000000000
H      -4.611998000000000     -2.587962000000000     -0.895739000000000
O       3.280979000000000     -3.844290000000000     -1.884828000000000
H       3.642446000000000     -3.603933000000000     -2.759996000000000
O       0.247376000000000     -3.328761000000000      4.070833000000000
H      -0.673657000000000     -3.616484000000000      4.126937000000000
O       3.324460000000000     -2.083080000000000     -3.608825000000000
H       4.054044000000000     -1.482821000000000     -3.850639000000000
O       0.370822000000000     -4.285235000000000     -3.049703000000000
H       1.290136000000000     -4.555001000000000     -2.923167000000000
