152

C       3.775654000000000      0.370915000000000      1.261886000000000
C       3.499608000000000      1.546580000000000      0.225555000000000
C       3.442704000000000      0.891990000000000     -1.180651000000000
C       3.630099000000000     -0.942647000000000      0.370968000000000
C       2.917309000000000     -0.472789000000000     -0.867859000000000
C       3.103608000000000     -2.264076000000000      0.995644000000000
C       2.145736000000000     -2.131612000000000      2.207828000000000
C       2.985323000000000      0.463885000000000      2.650039000000000
C       2.135035000000000     -0.824120000000000      3.054165000000000
C       1.936966000000000      1.653621000000000      2.905302000000000
C       2.235162000000000      2.267906000000000      0.489366000000000
C       1.913745000000000      2.770351000000000      1.857840000000000
C       1.478562000000000      2.811269000000000     -0.446405000000000
C       2.705337000000000      1.641167000000000     -2.354979000000000
C       1.714837000000000      2.804334000000000     -1.911635000000000
C       1.814927000000000      0.666572000000000     -3.237156000000000
C       2.865748000000000     -1.440300000000000     -1.988032000000000
C       2.043830000000000     -0.885453000000000     -3.220537000000000
C       2.327929000000000     -3.237674000000000     -0.051770000000000
C       2.133283000000000     -2.741778000000000     -1.528259000000000
C       0.793903000000000     -2.485738000000000      1.663975000000000
C       0.944053000000000     -3.583323000000000      0.680085000000000
C      -0.351751000000000     -2.164213000000000      2.219821000000000
C       0.716880000000000     -0.314276000000000      3.141310000000000
C       0.607387000000000      0.985076000000000      3.029575000000000
C      -0.396148000000000     -1.247880000000000      3.401435000000000
C      -0.616026000000000      1.752615000000000      3.362531000000000
C       0.524706000000000      3.532983000000000      1.690332000000000
C       0.464674000000000      3.757069000000000      0.104973000000000
C      -0.769863000000000      2.890962000000000      2.306658000000000
C      -0.905299000000000      3.572413000000000     -0.578454000000000
C       0.381604000000000      2.575528000000000     -2.682092000000000
C       0.426872000000000      1.090977000000000     -2.848646000000000
C      -0.935291000000000      3.185975000000000     -2.105346000000000
C      -0.648366000000000      0.355871000000000     -2.954928000000000
C       0.695904000000000     -1.743276000000000     -3.222732000000000
C       0.716372000000000     -2.415552000000000     -1.896100000000000
C      -0.636656000000000     -1.024884000000000     -3.508617000000000
C      -0.347733000000000     -3.768142000000000     -0.145690000000000
C      -0.375526000000000     -2.865861000000000     -1.331513000000000
C      -1.676994000000000     -2.778651000000000      1.966582000000000
C      -1.762919000000000     -3.472856000000000      0.560728000000000
C      -1.853473000000000     -0.672901000000000      3.446880000000000
C      -2.001624000000000      0.911807000000000      3.315115000000000
C      -2.682145000000000     -1.612914000000000      2.414714000000000
C      -1.653385000000000      2.192004000000000      1.316943000000000
C      -1.707096000000000      2.483250000000000      0.044540000000000
C      -2.753821000000000      1.475528000000000      2.036822000000000
C      -2.285752000000000      2.253691000000000     -2.260331000000000
C      -2.030474000000000      0.898402000000000     -2.984303000000000
C      -2.871561000000000      2.172062000000000     -0.822102000000000
C      -1.996898000000000     -1.645620000000000     -2.955193000000000
C      -1.770549000000000     -2.754124000000000     -1.868168000000000
C      -2.585487000000000     -2.671420000000000     -0.531287000000000
C      -2.912911000000000     -0.342666000000000     -2.599279000000000
C      -3.391397000000000     -0.969250000000000      1.191809000000000
C      -3.684316000000000      0.564729000000000      1.184059000000000
C      -3.762288000000000      0.959767000000000     -0.403069000000000
C      -2.800119000000000     -1.258123000000000     -0.157285000000000
C      -3.510371000000000     -0.396323000000000     -1.150125000000000
O       5.140090000000000      0.457457000000000      1.589752000000000
H       5.407040000000000      1.377340000000000      1.365978000000000
O       4.211949000000000     -2.977077000000000      1.494437000000000
H       4.994845000000000     -2.627123000000000      1.024590000000000
O       4.179381000000000     -1.727204000000000     -2.409558000000000
H       4.103639000000000     -2.219616000000000     -3.242296000000000
O       4.553855000000000      2.478044000000000      0.294141000000000
H       5.096861000000000      2.345549000000000     -0.503138000000000
O       2.543230000000000     -3.761473000000000     -2.422237000000000
H       2.921461000000000     -4.475162000000000     -1.877375000000000
O       3.060980000000000     -4.425493000000000     -0.132328000000000
H       3.754262000000000     -4.374886000000000      0.558528000000000
O       4.824120000000000      0.808784000000000     -1.576098000000000
H       4.854591000000000      0.499647000000000     -2.494312000000000
O       2.407313000000000     -3.219973000000000      3.083297000000000
H       3.284618000000000     -3.097110000000000      3.473630000000000
O       2.518575000000000     -1.202017000000000      4.360815000000000
H       3.103094000000000     -0.490011000000000      4.691468000000000
O       3.946359000000000      0.631158000000000      3.652511000000000
H       4.821682000000000      0.474716000000000      3.237589000000000
O       3.685483000000000      2.194798000000000     -3.183467000000000
H       3.714028000000000      3.151630000000000     -3.006812000000000
O       2.256814000000000      4.061112000000000     -2.271487000000000
H       1.836119000000000      4.288672000000000     -3.126390000000000
O       0.594239000000000      3.163522000000000     -3.967399000000000
H      -0.279421000000000      3.340325000000000     -4.350063000000000
O      -1.135249000000000      4.355656000000000     -2.846080000000000
H      -1.830698000000000      4.855102000000000     -2.385704000000000
O      -0.419860000000000      2.271461000000000      4.652408000000000
H      -1.315243000000000      2.353808000000000      5.039300000000000
O      -1.531819000000000      3.921127000000000      2.905552000000000
H      -0.954106000000000      4.696272000000000      2.998669000000000
O      -2.714003000000000      1.383965000000000      4.423376000000000
H      -3.067720000000000      0.612471000000000      4.900172000000000
O      -2.377549000000000     -0.969323000000000      4.714182000000000
H      -1.740795000000000     -1.554753000000000      5.163078000000000
O      -1.611373000000000      4.784631000000000     -0.420904000000000
H      -0.948962000000000      5.463658000000000     -0.195718000000000
O      -0.166445000000000     -1.966391000000000      4.598222000000000
H       0.792296000000000     -2.086105000000000      4.700397000000000
O       2.272466000000000      2.244643000000000      4.144470000000000
H       1.444475000000000      2.427685000000000      4.623032000000000
O       0.653164000000000      4.775318000000000      2.316638000000000
H       1.573311000000000      5.064043000000000      2.174676000000000
O       2.896625000000000      3.717532000000000      2.196951000000000
H       3.121669000000000      3.546714000000000      3.134095000000000
O       0.888530000000000      5.089140000000000     -0.119521000000000
H       1.479760000000000      5.094569000000000     -0.891252000000000
O      -2.201852000000000      1.159826000000000     -4.358701000000000
H      -3.157480000000000      1.177799000000000     -4.527728000000000
O      -3.976942000000000     -0.319473000000000     -3.497459000000000
H      -4.785099000000000     -0.524077000000000     -2.982362000000000
O      -3.822594000000000     -3.316943000000000     -0.736563000000000
H      -3.633531000000000     -4.040928000000000     -1.369261000000000
O      -5.064578000000000      1.354814000000000     -0.691678000000000
H      -5.550168000000000      1.377202000000000      0.157614000000000
O      -2.097247000000000     -4.015261000000000     -2.412709000000000
H      -2.263923000000000     -3.876488000000000     -3.363044000000000
O      -2.632219000000000     -2.295557000000000     -4.018298000000000
H      -2.503248000000000     -1.719172000000000     -4.794522000000000
O      -4.964405000000000      0.750194000000000      1.709368000000000
H      -5.425758000000000     -0.107897000000000      1.600507000000000
O      -3.179878000000000      2.939882000000000     -3.080820000000000
H      -3.811094000000000      3.394402000000000     -2.498109000000000
O      -4.666795000000000     -1.600191000000000      1.101633000000000
H      -4.740722000000000     -2.214335000000000      1.861210000000000
O      -2.396812000000000     -4.702804000000000      0.762613000000000
H      -1.977025000000000     -5.316820000000000      0.120386000000000
O      -3.691104000000000     -2.216416000000000      3.174812000000000
H      -3.265556000000000     -2.974153000000000      3.626214000000000
O       2.778108000000000     -1.255047000000000     -4.351538000000000
H       2.605627000000000     -0.587825000000000     -5.035999000000000
O       4.950978000000000     -1.312594000000000     -0.012024000000000
H       5.292468000000000     -0.647274000000000     -0.637046000000000
O      -0.381642000000000     -5.099983000000000     -0.605960000000000
H       0.243897000000000     -5.600393000000000     -0.053505000000000
O       0.790779000000000     -2.734098000000000     -4.224241000000000
H       1.525393000000000     -3.323403000000000     -3.986246000000000
O       1.100973000000000     -4.808012000000000      1.367938000000000
H       1.649817000000000     -4.639989000000000      2.153623000000000
O      -1.805865000000000     -3.785680000000000      2.952341000000000
H      -2.090996000000000     -4.592274000000000      2.476449000000000
O       1.998531000000000      1.010302000000000     -4.594062000000000
H       1.604472000000000      1.887503000000000     -4.742783000000000
O      -0.761228000000000     -0.916251000000000     -4.907851000000000
H      -0.222978000000000     -1.632802000000000     -5.286974000000000
O      -3.698495000000000      3.324279000000000     -0.702568000000000
H      -4.005107000000000      3.382815000000000      0.214101000000000
O      -3.649537000000000      2.496278000000000      2.420592000000000
H      -3.166242000000000      3.156105000000000      2.944101000000000
O      -4.817994000000000     -0.943047000000000     -1.322088000000000
H      -4.795112000000000     -1.899448000000000     -1.121670000000000
