156

C       3.912928000000000     -0.500421000000000      0.049708000000000
C       3.362792000000000     -1.829103000000000      0.787062000000000
C       2.711677000000000     -1.329244000000000      2.135712000000000
C       3.476029000000000      0.667393000000000      1.025175000000000
C       2.362878000000000      0.094696000000000      1.854651000000000
C       3.278585000000000      2.090377000000000      0.450845000000000
C       2.825249000000000      2.219750000000000     -1.031142000000000
C       3.636110000000000     -0.368008000000000     -1.509163000000000
C       3.198567000000000      1.105202000000000     -2.047480000000000
C       2.600258000000000     -1.344142000000000     -2.174954000000000
C       2.386687000000000     -2.788510000000000      0.037656000000000
C       2.288639000000000     -2.711734000000000     -1.513490000000000
C       0.963527000000000     -2.782380000000000      0.495272000000000
C       1.559329000000000     -2.132707000000000      2.860348000000000
C       0.734382000000000     -3.105953000000000      1.921356000000000
C       0.458269000000000     -1.204703000000000      3.530972000000000
C       1.961447000000000      0.917051000000000      3.025402000000000
C       0.741218000000000      0.304626000000000      3.826713000000000
C       2.223592000000000      2.974894000000000      1.303965000000000
C       1.501299000000000      2.325858000000000      2.538224000000000
C       1.391533000000000      2.637294000000000     -0.973403000000000
C       1.220785000000000      3.530007000000000      0.193470000000000
C       0.681494000000000      3.035432000000000     -2.206078000000000
C       1.974910000000000      0.853351000000000     -3.038245000000000
C       1.452145000000000     -0.453997000000000     -2.523553000000000
C       0.855827000000000      1.930402000000000     -3.313907000000000
C       0.273646000000000     -0.943813000000000     -2.814496000000000
C       0.805426000000000     -3.292489000000000     -1.870845000000000
C       0.194322000000000     -3.639111000000000     -0.473297000000000
C      -0.057776000000000     -2.390695000000000     -2.795293000000000
C      -1.357031000000000     -3.640205000000000     -0.325984000000000
C      -0.770938000000000     -2.887714000000000      2.239659000000000
C      -0.735048000000000     -1.446717000000000      2.648960000000000
C      -1.854873000000000     -3.257481000000000      1.160221000000000
C      -1.731481000000000     -0.612562000000000      2.488379000000000
C      -0.482878000000000      1.283903000000000      3.508618000000000
C       0.035067000000000      2.080643000000000      2.364578000000000
C      -1.860335000000000      0.674577000000000      3.205500000000000
C      -0.270942000000000      3.712423000000000      0.579071000000000
C      -0.754137000000000      2.638902000000000      1.483783000000000
C      -0.869075000000000      3.171185000000000     -1.946523000000000
C      -1.339727000000000      3.740119000000000     -0.578277000000000
C      -0.609058000000000      1.300148000000000     -3.473480000000000
C      -0.735217000000000     -0.224353000000000     -3.635776000000000
C      -1.315334000000000      1.789552000000000     -2.260051000000000
C      -1.614447000000000     -2.391310000000000     -2.667517000000000
C      -2.203554000000000     -2.722293000000000     -1.273947000000000
C      -2.093402000000000     -0.939275000000000     -3.218424000000000
C      -2.955435000000000     -2.128403000000000      0.924019000000000
C      -3.053644000000000     -1.004392000000000      1.953775000000000
C      -2.649032000000000     -1.584599000000000     -0.421392000000000
C      -2.917779000000000      1.489191000000000      2.321660000000000
C      -2.246901000000000      2.677549000000000      1.544325000000000
C      -2.667062000000000      3.015277000000000      0.083305000000000
C      -3.739377000000000      0.367012000000000      1.514654000000000
C      -2.343496000000000      1.185737000000000     -1.725926000000000
C      -3.009281000000000     -0.035434000000000     -2.294333000000000
C      -3.624698000000000     -0.632441000000000     -0.994457000000000
C      -3.269148000000000      1.849692000000000     -0.753924000000000
C      -3.982227000000000      0.621648000000000     -0.042289000000000
O       5.318286000000000     -0.526391000000000      0.150062000000000
H       5.542577000000000     -1.398999000000000      0.548197000000000
O       4.512195000000000      2.753161000000000      0.475148000000000
H       5.054033000000000      2.325638000000000      1.163390000000000
O       3.048526000000000      1.038199000000000      3.912947000000000
H       2.777841000000000      1.675927000000000      4.592559000000000
O       4.515560000000000     -2.582683000000000      1.079376000000000
H       4.540723000000000     -2.736786000000000      2.036886000000000
O       1.626377000000000      3.182769000000000      3.661880000000000
H       2.177275000000000      3.933702000000000      3.376211000000000
O       2.931354000000000      4.060105000000000      1.823290000000000
H       3.711081000000000      4.182135000000000      1.245326000000000
O       3.811684000000000     -1.365235000000000      3.063957000000000
H       3.487802000000000     -1.062865000000000      3.927415000000000
O       3.396993000000000      3.424156000000000     -1.510752000000000
H       4.080767000000000      3.183298000000000     -2.164866000000000
O      -0.365464000000000      4.936871000000000      1.276692000000000
H       0.460950000000000      5.420768000000000      1.073952000000000
O       1.152240000000000      4.282779000000000     -2.669370000000000
H       1.337021000000000      4.164190000000000     -3.621348000000000
O       2.148469000000000     -2.888861000000000      3.873712000000000
H       2.215786000000000     -3.803601000000000      3.539306000000000
O       4.268422000000000      1.598245000000000     -2.796701000000000
H       4.854474000000000      0.832165000000000     -2.978597000000000
O       4.843436000000000     -0.671597000000000     -2.162232000000000
H       5.544666000000000     -0.596747000000000     -1.474824000000000
O       1.089844000000000     -4.437319000000000      2.247974000000000
H       0.391210000000000     -4.761766000000000      2.847789000000000
O      -1.034856000000000     -3.663048000000000      3.403005000000000
H      -1.859627000000000     -4.158198000000000      3.215300000000000
O      -2.516985000000000     -4.385360000000000      1.663786000000000
H      -3.442423000000000     -4.306888000000000      1.348094000000000
O      -1.390171000000000      3.975308000000000     -2.982680000000000
H      -1.501995000000000      4.869459000000000     -2.617980000000000
O      -1.678987000000000      5.072812000000000     -0.820842000000000
H      -1.495970000000000      5.550768000000000      0.013773000000000
O      -3.790684000000000     -1.558772000000000      3.026975000000000
H      -3.667952000000000     -0.984410000000000      3.802425000000000
O      -5.030478000000000      0.304782000000000      2.075099000000000
H      -5.068783000000000      0.989183000000000      2.773009000000000
O      -5.350742000000000      0.847535000000000     -0.228869000000000
H      -5.784220000000000      0.661469000000000      0.631163000000000
O      -4.824751000000000     -1.306043000000000     -1.300162000000000
H      -5.529014000000000     -0.626446000000000     -1.253438000000000
O      -4.095181000000000      0.416163000000000     -3.082714000000000
H      -3.995687000000000     -0.011906000000000     -3.957127000000000
O      -2.824377000000000     -1.172774000000000     -4.385513000000000
H      -2.884895000000000     -2.150482000000000     -4.477287000000000
O       0.967282000000000     -4.464488000000000     -2.609878000000000
H       1.204927000000000     -5.172760000000000     -1.988890000000000
O       0.601837000000000     -4.994616000000000     -0.216347000000000
H      -0.207808000000000     -5.540586000000000     -0.233398000000000
O       3.240834000000000     -3.601463000000000     -2.035585000000000
H       3.537041000000000     -4.152266000000000     -1.280011000000000
O       3.098968000000000     -1.694263000000000     -3.467243000000000
H       3.698708000000000     -2.452456000000000     -3.340014000000000
O      -1.745162000000000     -4.966088000000000     -0.570152000000000
H      -2.596644000000000     -4.930416000000000     -1.045574000000000
O      -3.384442000000000     -3.490550000000000     -1.521145000000000
H      -4.150161000000000     -2.892426000000000     -1.601345000000000
O       1.163067000000000      2.621110000000000     -4.487635000000000
H       1.682197000000000      2.013965000000000     -5.043303000000000
O      -2.122637000000000     -3.368179000000000     -3.533353000000000
H      -1.386544000000000     -3.618398000000000     -4.125273000000000
O      -0.461130000000000     -0.531648000000000     -4.976212000000000
H      -0.932225000000000      0.127808000000000     -5.509354000000000
O      -3.842709000000000      2.047590000000000      3.214297000000000
H      -3.542404000000000      2.973738000000000      3.351026000000000
O      -2.502912000000000      3.831016000000000      2.339138000000000
H      -3.028211000000000      4.443226000000000      1.793151000000000
O      -0.699970000000000      2.128748000000000      4.613426000000000
H       0.087034000000000      2.687617000000000      4.714889000000000
O       4.568944000000000      0.873794000000000      1.915210000000000
H       4.640078000000000      0.107712000000000      2.515176000000000
O      -1.217948000000000      1.841467000000000     -4.619053000000000
H      -1.328126000000000      2.795315000000000     -4.472719000000000
O       1.069426000000000      0.462615000000000      5.174299000000000
H       0.627486000000000     -0.246241000000000      5.666710000000000
O       2.515744000000000      0.644284000000000     -4.325344000000000
H       2.936990000000000     -0.233840000000000     -4.343750000000000
O       0.139792000000000     -1.735790000000000      4.800265000000000
H      -0.242297000000000     -2.619555000000000      4.677061000000000
O      -2.489640000000000      0.367204000000000      4.434175000000000
H      -2.242831000000000      1.077615000000000      5.049190000000000
O       0.180241000000000     -2.841215000000000     -4.119713000000000
H       1.121463000000000     -2.744157000000000     -4.314712000000000
O      -3.645337000000000      4.010462000000000      0.205983000000000
H      -4.187664000000000      3.976193000000000     -0.601011000000000
O      -4.232472000000000      2.513526000000000     -1.551988000000000
H      -4.525111000000000      1.898102000000000     -2.248935000000000
O       1.677745000000000      4.841969000000000     -0.111631000000000
H       1.803877000000000      4.920612000000000     -1.074104000000000
O       2.937113000000000     -4.073283000000000      0.353705000000000
H       2.208279000000000     -4.714529000000000      0.438813000000000
O      -4.221312000000000     -2.777339000000000      0.898021000000000
H      -4.703695000000000     -2.489455000000000      1.692230000000000
