62

C      -2.330052000000000     -2.601769000000000      1.517421000000000
C      -2.862698000000000     -2.603204000000000      0.157031000000000
C      -3.705379000000000     -1.423775000000000      0.004027000000000
C      -2.850915000000000     -1.423951000000000      2.205924000000000
C      -3.699263000000000     -0.695268000000000      1.267030000000000
C      -2.049615000000000     -0.730815000000000      3.104663000000000
C      -0.684548000000000     -1.178291000000000      3.362365000000000
C      -1.027854000000000     -3.022895000000000      1.753850000000000
C      -0.183674000000000     -2.298555000000000      2.699061000000000
C      -0.192814000000000     -3.467164000000000      0.641366000000000
C      -2.071348000000000     -3.035105000000000     -0.901040000000000
C      -0.705938000000000     -3.483686000000000     -0.655127000000000
C      -2.083660000000000     -2.305393000000000     -2.167452000000000
C      -3.719744000000000     -0.728738000000000     -1.202692000000000
C      -2.889171000000000     -1.180195000000000     -2.313713000000000
C      -3.719744000000000      0.728735000000000     -1.202695000000000
C      -3.699263000000000      0.695277000000000      1.267027000000000
C      -3.705380000000000      1.423778000000000      0.004020000000000
C      -2.049615000000000      0.730831000000000      3.104659000000000
C      -2.850915000000000      1.423963000000000      2.205918000000000
C       0.154298000000000      0.000008000000000      3.526584000000000
C      -0.684547000000000      1.178307000000000      3.362360000000000
C       1.451960000000000      0.000007000000000      3.018477000000000
C       1.170341000000000     -2.285349000000000      2.172008000000000
C       1.164740000000000     -3.019546000000000      0.882046000000000
C       1.963582000000000     -1.169039000000000      2.323126000000000
C       1.953189000000000     -2.605460000000000     -0.166885000000000
C       0.122604000000000     -3.032245000000000     -1.756164000000000
C      -0.726103000000000     -2.303632000000000     -2.695393000000000
C       1.420669000000000     -2.586892000000000     -1.502608000000000
C      -0.234897000000000     -1.179055000000000     -3.348903000000000
C      -2.375811000000000     -0.000006000000000     -3.000393000000000
C      -2.889172000000000      1.180186000000000     -2.313719000000000
C      -1.079130000000000     -0.000008000000000     -3.506196000000000
C      -2.083661000000000      2.305384000000000     -2.167464000000000
C      -2.862698000000000      2.603207000000000      0.157019000000000
C      -2.330052000000000      2.601778000000000      1.517409000000000
C      -2.071349000000000      3.035102000000000     -0.901054000000000
C      -0.183674000000000      2.298567000000000      2.699050000000000
C      -1.027853000000000      3.022903000000000      1.753836000000000
C       1.963583000000000      1.169050000000000      2.323121000000000
C       1.170343000000000      2.285360000000000      2.171998000000000
C       2.783992000000000     -0.684816000000000      1.197038000000000
C       3.006333000000000     -1.509422000000000     -0.022848000000000
C       2.783992000000000      0.684821000000000      1.197034000000000
C       1.936450000000000     -1.405775000000000     -2.190789000000000
C       1.129619000000000     -0.724287000000000     -3.100095000000000
C       2.802217000000000     -0.684938000000000     -1.290209000000000
C      -0.234897000000000      1.179039000000000     -3.348908000000000
C      -0.726103000000000      2.303619000000000     -2.695403000000000
C       1.129619000000000      0.724271000000000     -3.100098000000000
C      -0.705937000000000      3.483681000000000     -0.655143000000000
C      -0.192813000000000      3.467165000000000      0.641350000000000
C       1.164741000000000      3.019548000000000      0.882032000000000
C       0.122604000000000      3.032234000000000     -1.756177000000000
C       3.006335000000000      1.509421000000000     -0.022853000000000
C       2.802224000000000      0.684932000000000     -1.290217000000000
C       1.936451000000000      1.405764000000000     -2.190797000000000
C       1.953190000000000      2.605459000000000     -0.166897000000000
C       1.420670000000000      2.586882000000000     -1.502619000000000
Cl      4.760562000000000     -2.296567000000000      0.002773000000000
Cl      4.760569000000000      2.296567000000000      0.002768000000000
