63

C       0.208197080338277     -0.070168285076491     -3.764652364315747
C       0.265202253952754      1.339283725544507     -3.243032152340522
C      -1.020750777298176      1.774644227239873     -2.828528789615857
C      -1.155163349170323     -0.489262050492488     -3.287681894209414
C      -1.905102608021301      0.636150065240636     -2.856328719622075
C      -1.399455918385935     -1.710242448858365     -2.716194006883229
C      -0.306250657030210     -2.588107101546367     -2.335986763932949
C       1.264699737353723     -0.906162849628482     -3.136770698721983
C       0.997416729189764     -2.163534379984402     -2.557586194520360
C       2.402651855679200     -0.354467220663890     -2.513412315145911
C       1.373782545591330      1.859960718191070     -2.629016425283527
C       2.485785905886873      1.006296464672282     -2.248218310364491
C       1.235849148335655      2.846871451719514     -1.595137164948633
C      -1.169610042670939      2.731934455577337     -1.836057902568454
C      -0.014744908682635      3.289287216032109     -1.206697412099721
C      -2.192444613355357      2.598261252207453     -0.844529912412248
C      -2.892634059385566      0.513752894707790     -1.890221684573435
C      -3.039915636631837      1.507246627263069     -0.871170280192879
C      -2.413950212881642     -1.851795870585345     -1.709869703722197
C      -3.161350094812110     -0.761579676747406     -1.305612003312304
C      -0.647006090409359     -3.251381946689182     -1.126234902999990
C      -1.962421440709409     -2.798819835636280     -0.733456361418891
C       0.311408250410069     -3.497345355922742     -0.152359370086246
C       2.011594360243022     -2.426610768605521     -1.545118728275800
C       2.884670666089547     -1.302632477916768     -1.517673265844006
C       1.668685962238788     -3.073722758930145     -0.377246343548484
C       3.398897543876200     -0.846288465135384     -0.322856814654348
C       3.015210106390705      1.463270792445704     -1.011112022347889
C       2.241827425037368      2.613633254713593     -0.601294627683267
C       3.467757304817574      0.566065413892294     -0.053138512340904
C       1.954767777181923      2.806094801866338      0.734892802213349
C      -0.320347976460447      3.494798912856265      0.180825988472105
C      -1.672568333132509      3.072201327425269      0.411071178883038
C       0.650481888681543      3.259653722306569      1.135529866454726
C      -2.004566061107829      2.428284948435945      1.584934858000347
C      -3.399905341398426      0.848467598668171      0.356771945645625
C      -3.468898209674574     -0.558571777107688      0.081850392872067
C      -2.886213351879702      1.293272430894356      1.557219945600099
C      -2.251523152191678     -2.608987489341482      0.602666777958310
C      -3.023301101643789     -1.469889739832303      1.020043452570728
C       0.002906164345931     -3.290971300293683      1.228158734143171
C      -1.255317754795080     -2.859297643388459      1.607243764197645
C       2.200089170149995     -2.608449246681500      0.875609903031456
C       3.050221315032739     -1.514008675087352      0.902334098311329
C       1.170147067423819     -2.740821353276679      1.867486895023339
C       3.158821645350473      0.771881497951519      1.327365892922856
C       2.420157668900263      1.872424633799946      1.722783409074894
C       2.899911211928315     -0.513962961247726      1.921862635432166
C       0.304718441576155      2.592540860604337      2.355819615974140
C      -0.997489209458740      2.182644735994226      2.575315287024198
C       1.397409614063324      1.733293235573995      2.715988361218272
C      -2.422318600631044      0.348352060684143      2.530525553102473
C      -2.491648936626730     -1.007438008986366      2.267915015810499
C      -1.397330634551312     -1.864591005854060      2.628135175892099
C      -1.257456433037846      0.899170238693835      3.162268177895269
C       1.028918585022219     -1.779242618288327      2.846169389389045
C       1.910441955064590     -0.644390012492553      2.873880219124508
C       1.146600524410592      0.498923801719962      3.285128857932976
C      -0.277340638682648     -1.334225029637391      3.240366775440812
C      -0.204620129339330      0.072951563198113      3.506429427630633
Cl      0.370045821992647     -0.151415391326394     -5.585941218296455
Cl     -3.310286135635736      3.947327692895095     -1.299007711293848
Cl     -0.487583644050948      5.295685551263126      0.251107900036863
